@<TRIPOS>MOLECULE
xlinker.****
2656 2162 499 0 0 
SMALL
USER_CHARGES


@<TRIPOS>ATOM
   1 C      -12.1498     1.1033     5.4626 C.ar    1 <1>   -0.1435 
   2 C      -11.5476     2.2176     4.5830 C.3     1 <1>    0.5670 
   3 O1     -11.0133     3.1247     5.5548 O.3     1 <1>   -0.6800 
   4 H1     -10.6901     2.5887     6.2957 H       1 <1>    0.4000 
   5 C      -13.1896     1.4188     6.3471 C.ar    1 <1>   -0.1500 
   6 H      -13.5496     2.4142     6.4099 H       1 <1>    0.1500 
   7 C      -13.7581     0.4440     7.1606 C.ar    1 <1>   -0.1500 
   8 H      -14.5444     0.6992     7.8247 H       1 <1>    0.1500 
   9 C      -13.2908    -0.8628     7.1101 C.ar    1 <1>   -0.1500 
  10 H      -13.7219    -1.6067     7.7306 H       1 <1>    0.1500 
  11 C      -12.2501    -1.1909     6.2502 C.ar    1 <1>   -0.1500 
  12 H      -11.8860    -2.1865     6.2175 H       1 <1>    0.1500 
  13 C      -11.6799    -0.2168     5.4360 C.ar    1 <1>   -0.1500 
  14 H      -10.8785    -0.4974     4.8020 H       1 <1>    0.1500 
  15 C       -8.3303     0.8004     2.0166 C.ar    1 <1>    0.0825 
  16 O       -7.3559     0.3142     1.1622 O.3     1 <1>   -0.1650 
  17 C       -9.6462     0.4495     1.7428 C.ar    1 <1>   -0.1500 
  18 H       -9.8645    -0.1625     0.9059 H       1 <1>    0.1500 
  19 C      -10.6652     0.8993     2.5757 C.ar    1 <1>   -0.1500 
  20 H      -11.6601     0.6073     2.3652 H       1 <1>    0.1500 
  21 C      -10.3889     1.7173     3.6815 C.ar    1 <1>   -0.1435 
  22 C       -9.0483     2.0495     3.9427 C.ar    1 <1>   -0.1500 
  23 H       -8.7932     2.6593     4.7710 H       1 <1>    0.1500 
  24 C       -8.0224     1.5861     3.1253 C.ar    1 <1>   -0.1500 
  25 H       -7.0172     1.8254     3.3543 H       1 <1>    0.1500 
  26 C       -3.3594     1.3970     1.0578 C.ar    1 <1>    0.0825 
  27 O       -2.0040     1.6736     1.0697 O.3     1 <1>   -0.1650 
  28 C       -3.7194     0.0501     1.0776 C.ar    1 <1>   -0.1500 
  29 H       -2.9679    -0.6968     1.0741 H       1 <1>    0.1500 
  30 C       -5.0648    -0.3006     1.1059 C.ar    1 <1>   -0.1500 
  31 H       -5.3577    -1.3186     1.1240 H       1 <1>    0.1500 
  32 C       -6.0319     0.7022     1.1172 C.ar    1 <1>    0.0825 
  33 C       -5.6772     2.0525     1.0759 C.ar    1 <1>   -0.1500 
  34 H       -6.4290     2.7992     1.0619 H       1 <1>    0.1500 
  35 C       -4.3296     2.4038     1.0628 C.ar    1 <1>   -0.1500 
  36 H       -4.0454     3.4233     1.0714 H       1 <1>    0.1500 
  37 C        0.3275     4.8388    -0.3490 C.ar    1 <1>   -0.1435 
  38 C        1.2228     5.9918    -0.8568 C.3     1 <1>    0.5670 
  39 O3       0.7708     6.3316    -2.1776 O.3     1 <1>   -0.6800 
  40 H3       1.4942     6.1149    -2.7873 H       1 <1>    0.4000 
  41 C       -0.9850     4.6746    -0.8196 C.ar    1 <1>   -0.1500 
  42 H       -1.3817     5.3489    -1.5359 H       1 <1>    0.1500 
  43 C       -1.7806     3.6230    -0.3735 C.ar    1 <1>   -0.1500 
  44 H       -2.7516     3.4897    -0.7720 H       1 <1>    0.1500 
  45 C       -1.2772     2.7431     0.5819 C.ar    1 <1>    0.0825 
  46 C        0.0169     2.8896     1.0662 C.ar    1 <1>   -0.1500 
  47 H        0.3912     2.2054     1.7831 H       1 <1>    0.1500 
  48 C        0.8143     3.9288     0.5998 C.ar    1 <1>   -0.1500 
  49 H        1.8039     4.0211     0.9686 H       1 <1>    0.1500 
  50 C        5.2333     4.4664    -1.6031 C.ar    1 <1>   -0.1500 
  51 H        6.2015     4.0815    -1.8000 H       1 <1>    0.1500 
  52 C        5.0775     5.5788    -0.7866 C.ar    1 <1>   -0.1500 
  53 H        5.9299     6.0430    -0.3597 H       1 <1>    0.1500 
  54 C        3.8077     6.0860    -0.5268 C.ar    1 <1>   -0.1500 
  55 H        3.7312     6.9294     0.1037 H       1 <1>    0.1500 
  56 C        2.6673     5.4898    -1.0821 C.ar    1 <1>   -0.1435 
  57 C        2.8459     4.3660    -1.9001 C.ar    1 <1>   -0.1500 
  58 H        2.0023     3.8828    -2.3269 H       1 <1>    0.1500 
  59 C        4.1152     3.8591    -2.1589 C.ar    1 <1>   -0.1500 
  60 H        4.2291     3.0069    -2.7794 H       1 <1>    0.1500 
  61 C      -17.5937     2.4881     2.6227 C.2     1 <1>    0.6590 
  62 C1     -16.1948     1.8929     2.5122 C.3     1 <1>   -0.0990 
  63 H11    -15.9644     1.7776     1.4528 H       1 <1>    0.0800 
  64 H12    -16.1891     0.9049     2.9718 H       1 <1>    0.0800 
  65 C13    -15.1298     2.7870     3.1689 C.3     1 <1>   -0.1600 
  66 H131   -15.1131     3.7509     2.6556 H       1 <1>    0.0800 
  67 C132   -13.7411     2.1292     3.1026 C.3     1 <1>   -0.1600 
  68 H131   -13.4832     1.9415     2.0585 H       1 <1>    0.0800 
  69 H132   -13.8110     1.1600     3.5953 H       1 <1>    0.0800 
  70 C133   -12.6483     3.0171     3.7682 C.3     1 <1>   -0.0800 
  71 H133   -13.1435     3.6348     4.5181 H       1 <1>    0.0800 
  72 C131   -12.1058     3.9835     2.6753 C.3     1 <1>   -0.1600 
  73 H131   -11.5104     3.4231     1.9536 H       1 <1>    0.0800 
  74 C132   -11.2689     5.1613     3.1952 C.3     1 <1>   -0.1600 
  75 H131   -10.4398     4.7848     3.7885 H       1 <1>    0.0800 
  76 H132   -11.8865     5.7914     3.8369 H       1 <1>    0.0800 
  77 C133   -10.6809     6.0178     2.0627 C.3     1 <1>   -0.0218 
  78 H131   -10.0600     5.4072     1.4209 H       1 <1>    0.0800 
  79 C132    -9.8891     7.2091     2.5619 C.2     1 <1>   -0.2882 
  80 H132   -10.3687     8.1450     2.4202 H       1 <1>    0.1500 
  81 C133    -8.6862     7.1452     3.1562 C.2     1 <1>   -0.2882 
  82 H131    -8.2108     8.0311     3.4946 H       1 <1>    0.1500 
  83 C132    -7.9228     5.8670     3.4465 C.3     1 <1>   -0.0218 
  84 C131    -6.4028     6.0456     3.3412 C.3     1 <1>   -0.1600 
  85 H131    -6.1485     6.2693     2.3037 H       1 <1>    0.0800 
  86 C132    -5.6259     4.8077     3.8059 C.3     1 <1>   -0.1600 
  87 H131    -5.8771     3.9599     3.1701 H       1 <1>    0.0800 
  88 H132    -5.9091     4.5704     4.8323 H       1 <1>    0.0800 
  89 C133    -4.1178     5.0682     3.7432 C.3     1 <1>   -0.1600 
  90 H131    -3.8232     5.2687     2.7116 H       1 <1>    0.0800 
  91 C132    -3.3251     3.8693     4.2799 C.3     1 <1>   -0.1600 
  92 H131    -3.5324     2.9870     3.6730 H       1 <1>    0.0800 
  93 H132    -3.6254     3.6642     5.3090 H       1 <1>    0.0800 
  94 C133    -1.8234     4.1759     4.2421 C.3     1 <1>   -0.1600 
  95 H131    -1.5289     4.4093     3.2180 H       1 <1>    0.0800 
  96 C132    -1.0027     2.9808     4.7383 C.3     1 <1>   -0.1600 
  97 H132    -1.1478     2.1353     4.0628 H       1 <1>    0.0800 
  98 H131    -1.3367     2.6955     5.7377 H       1 <1>    0.0800 
  99 C133     0.4851     3.3442     4.7917 C.3     1 <1>   -0.2400 
 100 H131     0.8321     3.6540     3.8058 H       1 <1>    0.0800 
 101 H132     1.0619     2.4781     5.1176 H       1 <1>    0.0800 
 102 H133     0.6421     4.1609     5.4979 H       1 <1>    0.0800 
 103 H133    -1.6182     5.0405     4.8757 H       1 <1>    0.0800 
 104 H133    -3.8872     5.9457     4.3465 H       1 <1>    0.0800 
 105 H133    -6.1118     6.8980     3.9558 H       1 <1>    0.0800 
 106 H132    -8.2291     5.0659     2.7884 H       1 <1>    0.0800 
 107 H133    -8.1770     5.5353     4.4443 H       1 <1>    0.0800 
 108 H133   -11.4809     6.3702     1.4252 H       1 <1>    0.0800 
 109 H133   -12.9484     4.4090     2.1288 H       1 <1>    0.0800 
 110 H133   -15.3976     2.9588     4.2133 H       1 <1>    0.0800 
 111 O2     -18.1109     3.1613     1.7453 O.2     1 <1>   -0.5700 
 112 O3     -18.2193     2.2127     3.7941 O.3     1 <1>   -0.6500 
 113 H3     -17.6653     1.6877     4.3643 H       1 <1>    0.5000 
 114 C        1.3968    11.1628    -0.5776 C.2     1 <1>    0.6590 
 115 C1       0.9404     9.8637     0.0780 C.3     1 <1>   -0.0990 
 116 C132    -9.8092     4.8467     8.1953 C.3     1 <1>   -0.1600 
 117 H11     -0.1450     9.8137    -0.0047 H       1 <1>    0.0800 
 118 H132   -10.0933     5.1479     7.1845 H       1 <1>    0.0800 
 119 H131   -10.2773     3.8833     8.4043 H       1 <1>    0.0800 
 120 H12      1.2037     9.9235     1.1313 H       1 <1>    0.0800 
 121 C13      1.5568     8.6023    -0.5618 C.3     1 <1>   -0.1600 
 122 H131     1.3216     8.6465    -1.6258 H       1 <1>    0.0800 
 123 C132     1.0154     7.2723     0.0470 C.3     1 <1>   -0.0800 
 124 H132    -0.0701     7.3803     0.0532 H       1 <1>    0.0800 
 125 C133     1.4762     7.0817     1.5232 C.3     1 <1>   -0.1600 
 126 C131     0.3344     6.8864     2.5355 C.3     1 <1>   -0.1600 
 127 H131    -0.3965     6.1801     2.1382 H       1 <1>    0.0800 
 128 C132    -0.3625     8.2078     2.8968 C.3     1 <1>   -0.1600 
 129 H131    -0.8700     8.5924     2.0121 H       1 <1>    0.0800 
 130 H132     0.3827     8.9391     3.2136 H       1 <1>    0.0800 
 131 C133    -1.4045     8.0770     4.0181 C.3     1 <1>   -0.0218 
 132 H131    -1.9508     9.0083     4.0895 H       1 <1>    0.0800 
 133 C132    -0.8157     7.7458     5.3775 C.2     1 <1>   -0.2882 
 134 H132     0.2304     7.5707     5.3872 H       1 <1>    0.1500 
 135 C133    -1.5222     7.6666     6.5171 C.2     1 <1>   -0.2882 
 136 H131    -1.0403     7.4304     7.4326 H       1 <1>    0.1500 
 137 C132    -3.0145     7.9029     6.6389 C.3     1 <1>   -0.0218 
 138 C131    -3.7567     6.7120     7.2619 C.3     1 <1>   -0.1600 
 139 H131    -3.5256     5.8175     6.6827 H       1 <1>    0.0800 
 140 C132    -5.2762     6.9207     7.2907 C.3     1 <1>   -0.1600 
 141 H131    -5.6267     7.1279     6.2788 H       1 <1>    0.0800 
 142 H132    -5.5088     7.7812     7.9212 H       1 <1>    0.0800 
 143 C133    -6.0055     5.6833     7.8276 C.3     1 <1>   -0.1600 
 144 H131    -5.7626     4.8197     7.2066 H       1 <1>    0.0800 
 145 C132    -7.5213     5.9233     7.8068 C.3     1 <1>   -0.1600 
 146 H131    -7.8356     6.1792     6.7934 H       1 <1>    0.0800 
 147 H132    -7.7536     6.7609     8.4656 H       1 <1>    0.0800 
 148 C133    -8.2837     4.6725     8.2681 C.3     1 <1>   -0.1600 
 149 H131    -8.0044     3.8357     7.6253 H       1 <1>    0.0800 
 150 C133   -10.3513     5.8731     9.1981 C.3     1 <1>   -0.2400 
 151 H131   -10.0332     5.6137    10.2086 H       1 <1>    0.0800 
 152 H132   -11.4412     5.8756     9.1598 H       1 <1>    0.0800 
 153 H133    -9.9956     6.8730     8.9501 H       1 <1>    0.0800 
 154 H133    -7.9961     4.4258     9.2918 H       1 <1>    0.0800 
 155 H133    -5.6818     5.4830     8.8508 H       1 <1>    0.0800 
 156 H133    -3.3921     6.5605     8.2789 H       1 <1>    0.0800 
 157 H132    -3.4556     8.1298     5.6793 H       1 <1>    0.0800 
 158 H133    -3.1823     8.7857     7.2415 H       1 <1>    0.0800 
 159 H133    -2.1328     7.3296     3.7394 H       1 <1>    0.0800 
 160 H133     0.7573     6.4498     3.4414 H       1 <1>    0.0800 
 161 H132     2.0934     7.9208     1.8462 H       1 <1>    0.0800 
 162 H133     2.1156     6.2036     1.5929 H       1 <1>    0.0800 
 163 H133     2.6402     8.6609    -0.4735 H       1 <1>    0.0800 
 164 O2       2.3549    11.2942    -1.3217 O.2     1 <1>   -0.5700 
 165 O3       0.6504    12.2384    -0.2736 O.3     1 <1>   -0.6500 
 166 H3       1.0630    12.9544    -0.7583 H       1 <1>    0.5000 
 167 CL      19.4837    -7.4219   -14.3457 Cl      2 CCL4  -0.0812 
 168 C       19.2494    -5.7804   -13.6815 C.3     2 CCL4   0.3246 
 169 CL      17.7546    -5.1535   -14.3898 Cl      2 CCL4  -0.0812 
 170 CL      20.6724    -4.7239   -13.9040 Cl      2 CCL4  -0.0812 
 171 CL      19.0377    -5.9912   -11.9181 Cl      2 CCL4  -0.0812 
 172 CL     -18.3784    -9.3761   -17.4865 Cl      3 CCL4  -0.0812 
 173 C      -17.8771    -9.3763   -15.8661 C.3     3 CCL4   0.3246 
 174 CL     -18.2136   -10.8719   -15.0813 Cl      3 CCL4  -0.0812 
 175 CL     -18.4353    -8.0209   -14.9799 Cl      3 CCL4  -0.0812 
 176 CL     -16.0850    -9.2498   -15.8883 Cl      3 CCL4  -0.0812 
 177 CL     -20.4937    22.6095   -11.6989 Cl      4 CCL4  -0.0812 
 178 C      -21.0915    23.6273   -13.0940 C.3     4 CCL4   0.3246 
 179 CL     -22.3300    22.8486   -14.1766 Cl      4 CCL4  -0.0812 
 180 CL     -19.7139    24.1881   -14.0931 Cl      4 CCL4  -0.0812 
 181 CL     -21.8224    25.1661   -12.3535 Cl      4 CCL4  -0.0812 
 182 CL     -26.2253    -7.0696   -12.4520 Cl      5 CCL4  -0.0812 
 183 C      -25.9391    -8.8245   -12.3248 C.3     5 CCL4   0.3246 
 184 CL     -26.1839    -9.3397   -10.6341 Cl      5 CCL4  -0.0812 
 185 CL     -24.4000    -9.4239   -12.8883 Cl      5 CCL4  -0.0812 
 186 CL     -27.1931    -9.6377   -13.2927 Cl      5 CCL4  -0.0812 
 187 CL     -19.1206   -14.9175     2.5615 Cl      6 CCL4  -0.0812 
 188 C      -20.7924   -14.3202     2.4346 C.3     6 CCL4   0.3246 
 189 CL     -21.1483   -14.0682     0.6409 Cl      6 CCL4  -0.0812 
 190 CL     -21.1219   -12.7966     3.2743 Cl      6 CCL4  -0.0812 
 191 CL     -22.0263   -15.5432     2.8594 Cl      6 CCL4  -0.0812 
 192 CL     -24.7760     1.8125   -12.2697 Cl      7 CCL4  -0.0812 
 193 C      -24.2418     3.3739   -12.9551 C.3     7 CCL4   0.3246 
 194 CL     -25.1699     4.7889   -12.4213 Cl      7 CCL4  -0.0812 
 195 CL     -24.0951     3.3841   -14.7026 Cl      7 CCL4  -0.0812 
 196 CL     -22.6083     3.6396   -12.2979 Cl      7 CCL4  -0.0812 
 197 CL     -20.7796    -9.9872   -12.6193 Cl      8 CCL4  -0.0812 
 198 C      -21.2881   -11.7145   -12.4032 C.3     8 CCL4   0.3246 
 199 CL     -19.8610   -12.6579   -11.9390 Cl      8 CCL4  -0.0812 
 200 CL     -21.9492   -12.3972   -13.8556 Cl      8 CCL4  -0.0812 
 201 CL     -22.3837   -11.8299   -10.9522 Cl      8 CCL4  -0.0812 
 202 CL     -25.3730    23.9246   -12.6740 Cl      9 CCL4  -0.0812 
 203 C      -26.1170    24.4153   -11.1227 C.3     9 CCL4   0.3246 
 204 CL     -24.8930    24.9039   -10.0500 Cl      9 CCL4  -0.0812 
 205 CL     -26.9939    23.0017   -10.5068 Cl      9 CCL4  -0.0812 
 206 CL     -27.3075    25.7579   -11.4276 Cl      9 CCL4  -0.0812 
 207 CL      -9.2292    -1.5683   -15.1602 Cl     10 CCL4  -0.0812 
 208 C       -9.2746     0.0519   -15.8425 C.3    10 CCL4   0.3246 
 209 CL      -9.0295     1.3262   -14.4853 Cl     10 CCL4  -0.0812 
 210 CL     -10.8900     0.4476   -16.4977 Cl     10 CCL4  -0.0812 
 211 CL      -8.1082     0.4775   -17.0983 Cl     10 CCL4  -0.0812 
 212 CL     -17.2492     4.5448   -16.5273 Cl     11 CCL4  -0.0812 
 213 C      -19.0480     4.1293   -16.5316 C.3    11 CCL4   0.3246 
 214 CL     -19.2583     2.4299   -17.1393 Cl     11 CCL4  -0.0812 
 215 CL     -19.8911     5.2509   -17.5826 Cl     11 CCL4  -0.0812 
 216 CL     -19.7190     4.4123   -14.8670 Cl     11 CCL4  -0.0812 
 217 CL     -25.3324     2.2035    22.4341 Cl     12 CCL4  -0.0812 
 218 C      -23.8108     2.4926    21.5762 C.3    12 CCL4   0.3246 
 219 CL     -23.4745     4.2645    22.0153 Cl     12 CCL4  -0.0812 
 220 CL     -24.0452     2.4248    19.8259 Cl     12 CCL4  -0.0812 
 221 CL     -22.4505     1.4067    21.9594 Cl     12 CCL4  -0.0812 
 222 CL     -23.3252    -9.8058     2.9623 Cl     13 CCL4  -0.0812 
 223 C      -23.6312    -9.6557     1.2570 C.3    13 CCL4   0.3246 
 224 CL     -22.5609    -8.4875     0.4740 Cl     13 CCL4  -0.0812 
 225 CL     -25.3016    -9.1828     0.9091 Cl     13 CCL4  -0.0812 
 226 CL     -23.4666   -11.2779     0.4409 Cl     13 CCL4  -0.0812 
 227 CL     -30.4266    -8.2155     3.3510 Cl     14 CCL4  -0.0812 
 228 C      -29.7244    -9.2133     1.9951 C.3    14 CCL4   0.3246 
 229 CL     -28.3406   -10.0493     2.6694 Cl     14 CCL4  -0.0812 
 230 CL     -29.1695    -8.0362     0.8248 Cl     14 CCL4  -0.0812 
 231 CL     -30.8407   -10.3812     1.3837 Cl     14 CCL4  -0.0812 
 232 CL     -19.1486   -12.5141    21.5953 Cl     15 CCL4  -0.0812 
 233 C      -19.3961   -14.0848    22.3611 C.3    15 CCL4   0.3246 
 234 CL     -20.7749   -14.0486    23.4445 Cl     15 CCL4  -0.0812 
 235 CL     -17.9390   -14.5708    23.3062 Cl     15 CCL4  -0.0812 
 236 CL     -19.6188   -15.3649    21.0821 Cl     15 CCL4  -0.0812 
 237 CL     -22.3513    -7.8996    21.6474 Cl     16 CCL4  -0.0812 
 238 C      -22.7374    -9.3548    22.6954 C.3    16 CCL4   0.3246 
 239 CL     -24.4410    -9.3294    23.3059 Cl     16 CCL4  -0.0812 
 240 CL     -21.6110    -9.4993    24.0940 Cl     16 CCL4  -0.0812 
 241 CL     -22.3541   -10.7582    21.6664 Cl     16 CCL4  -0.0812 
 242 CL     -29.5205   -11.3742    20.8342 Cl     17 CCL4  -0.0812 
 243 C      -28.2752   -10.4406    21.6702 C.3    17 CCL4   0.3246 
 244 CL     -28.4653   -10.8958    23.4675 Cl     17 CCL4  -0.0812 
 245 CL     -28.6492    -8.6461    21.7743 Cl     17 CCL4  -0.0812 
 246 CL     -26.7641   -10.9467    21.0803 Cl     17 CCL4  -0.0812 
 247 CL     -24.5002   -14.9687   -15.4362 Cl     18 CCL4  -0.0812 
 248 C      -25.5143   -13.7294   -14.7123 C.3    18 CCL4   0.3246 
 249 CL     -25.1850   -12.2043   -15.5559 Cl     18 CCL4  -0.0812 
 250 CL     -24.8934   -13.4854   -12.9942 Cl     18 CCL4  -0.0812 
 251 CL     -27.1898   -14.2559   -14.7396 Cl     18 CCL4  -0.0812 
 252 CL      -5.2724    -9.5406   -11.5224 Cl     19 CCL4  -0.0812 
 253 C       -5.6017   -11.1682   -12.1791 C.3    19 CCL4   0.3246 
 254 CL      -6.8526   -12.0071   -11.2927 Cl     19 CCL4  -0.0812 
 255 CL      -4.2094   -12.1711   -11.9454 Cl     19 CCL4  -0.0812 
 256 CL      -6.0146   -10.9194   -13.9298 Cl     19 CCL4  -0.0812 
 257 CL      -4.9875    23.5942   -11.7237 Cl     20 CCL4  -0.0812 
 258 C       -6.4530    24.4700   -12.2484 C.3    20 CCL4   0.3246 
 259 CL      -5.8880    25.7138   -13.4011 Cl     20 CCL4  -0.0812 
 260 CL      -7.3453    25.2189   -10.9496 Cl     20 CCL4  -0.0812 
 261 CL      -7.5545    23.3838   -13.2336 Cl     20 CCL4  -0.0812 
 262 CL      -7.0623   -10.3444    -6.7267 Cl     21 CCL4  -0.0812 
 263 C       -7.8190   -11.9123    -6.2468 C.3    21 CCL4   0.3246 
 264 CL      -7.9271   -12.9659    -7.7021 Cl     21 CCL4  -0.0812 
 265 CL      -9.4989   -11.5699    -5.6124 Cl     21 CCL4  -0.0812 
 266 CL      -6.8727   -12.8168    -4.9489 Cl     21 CCL4  -0.0812 
 267 CL     -28.3878     4.1368   -13.0674 Cl     22 CCL4  -0.0812 
 268 C      -29.7447     3.3740   -12.1780 C.3    22 CCL4   0.3246 
 269 CL     -31.2636     3.9566   -12.9403 Cl     22 CCL4  -0.0812 
 270 CL     -29.7357     3.9654   -10.5275 Cl     22 CCL4  -0.0812 
 271 CL     -29.4764     1.6366   -12.2731 Cl     22 CCL4  -0.0812 
 272 CL      -7.4603   -15.9158    23.1664 Cl     23 CCL4  -0.0812 
 273 C       -6.9162   -14.4066    22.4385 C.3    23 CCL4   0.3246 
 274 CL      -5.6453   -13.6260    23.4820 Cl     23 CCL4  -0.0812 
 275 CL      -8.2283   -13.1641    22.3434 Cl     23 CCL4  -0.0812 
 276 CL      -6.2481   -14.5176    20.8710 Cl     23 CCL4  -0.0812 
 277 CL     -25.8880    25.6579    -4.0519 Cl     24 CCL4  -0.0812 
 278 C      -25.4158    24.1920    -5.0417 C.3    24 CCL4   0.3246 
 279 CL     -26.9598    23.6753    -5.7945 Cl     24 CCL4  -0.0812 
 280 CL     -24.6382    22.8718    -4.0627 Cl     24 CCL4  -0.0812 
 281 CL     -24.3364    24.7770    -6.2989 Cl     24 CCL4  -0.0812 
 282 CL     -18.9259   -10.1971    -1.9656 Cl     25 CCL4  -0.0812 
 283 C      -18.1819   -10.8957    -0.6119 C.3    25 CCL4   0.3246 
 284 CL     -19.2052   -10.8625     0.8377 Cl     25 CCL4  -0.0812 
 285 CL     -16.8069    -9.8757    -0.1055 Cl     25 CCL4  -0.0812 
 286 CL     -17.6326   -12.5251    -0.9432 Cl     25 CCL4  -0.0812 
 287 CL      -4.7469    25.1085    -5.7176 Cl     26 CCL4  -0.0812 
 288 C       -5.7095    23.7298    -6.4377 C.3    26 CCL4   0.3246 
 289 CL      -4.8665    23.0862    -7.8915 Cl     26 CCL4  -0.0812 
 290 CL      -7.2775    24.3614    -6.9165 Cl     26 CCL4  -0.0812 
 291 CL      -6.0308    22.3465    -5.2760 Cl     26 CCL4  -0.0812 
 292 CL     -20.1287   -11.9355    -7.8923 Cl     27 CCL4  -0.0812 
 293 C      -19.2278   -10.8627    -6.8186 C.3    27 CCL4   0.3246 
 294 CL     -18.0679    -9.7754    -7.6271 Cl     27 CCL4  -0.0812 
 295 CL     -18.2558   -11.9474    -5.5706 Cl     27 CCL4  -0.0812 
 296 CL     -20.3338    -9.8972    -5.8389 Cl     27 CCL4  -0.0812 
 297 CL     -21.2060    -8.6158    -9.0739 Cl     28 CCL4  -0.0812 
 298 C      -22.7800    -8.3382    -8.2044 C.3    28 CCL4   0.3246 
 299 CL     -22.5068    -7.3902    -6.7721 Cl     28 CCL4  -0.0812 
 300 CL     -23.4813    -9.9554    -7.7589 Cl     28 CCL4  -0.0812 
 301 CL     -23.8099    -7.4562    -9.2562 Cl     28 CCL4  -0.0812 
 302 CL     -16.1974   -16.4618    -9.5109 Cl     29 CCL4  -0.0812 
 303 C      -17.7357   -16.0374    -8.9224 C.3    29 CCL4   0.3246 
 304 CL     -18.8176   -15.7186   -10.3649 Cl     29 CCL4  -0.0812 
 305 CL     -17.6460   -14.5875    -7.9847 Cl     29 CCL4  -0.0812 
 306 CL     -18.4705   -17.3204    -7.9950 Cl     29 CCL4  -0.0812 
 307 CL     -22.8983     1.0878    -3.1020 Cl     30 CCL4  -0.0812 
 308 C      -23.4873     2.6977    -2.3840 C.3    30 CCL4   0.3246 
 309 CL     -23.3569     2.4519    -0.6385 Cl     30 CCL4  -0.0812 
 310 CL     -25.0681     3.2764    -2.7796 Cl     30 CCL4  -0.0812 
 311 CL     -22.2593     3.9837    -2.8055 Cl     30 CCL4  -0.0812 
 312 CL     -19.3805   -15.1123    -3.1007 Cl     31 CCL4  -0.0812 
 313 C      -20.4109   -16.0938    -4.0627 C.3    31 CCL4   0.3246 
 314 CL     -20.8895   -15.2226    -5.5348 Cl     31 CCL4  -0.0812 
 315 CL     -21.8213   -16.4505    -3.0929 Cl     31 CCL4  -0.0812 
 316 CL     -19.6116   -17.5768    -4.4765 Cl     31 CCL4  -0.0812 
 317 CL     -14.8213    -7.5231    -5.2418 Cl     32 CCL4  -0.0812 
 318 C      -14.2240    -8.7255    -4.1352 C.3    32 CCL4   0.3246 
 319 CL     -14.9820   -10.2951    -4.5394 Cl     32 CCL4  -0.0812 
 320 CL     -14.6857    -8.3183    -2.4326 Cl     32 CCL4  -0.0812 
 321 CL     -12.4603    -8.9352    -4.1483 Cl     32 CCL4  -0.0812 
 322 CL     -25.1125   -12.1900    -2.3272 Cl     33 CCL4  -0.0812 
 323 C      -23.6275   -11.9026    -3.2704 C.3    33 CCL4   0.3246 
 324 CL     -23.9985   -12.2368    -4.9558 Cl     33 CCL4  -0.0812 
 325 CL     -22.4250   -12.9695    -2.6207 Cl     33 CCL4  -0.0812 
 326 CL     -23.2014   -10.1354    -3.1644 Cl     33 CCL4  -0.0812 
 327 CL      -8.7314    -7.6783    -2.8361 Cl     34 CCL4  -0.0812 
 328 C       -7.3822    -8.4840    -1.9361 C.3    34 CCL4   0.3246 
 329 CL      -5.7844    -8.0936    -2.7587 Cl     34 CCL4  -0.0812 
 330 CL      -7.6333   -10.2425    -1.9988 Cl     34 CCL4  -0.0812 
 331 CL      -7.3759    -7.7981    -0.2712 Cl     34 CCL4  -0.0812 
 332 CL     -26.8106   -12.4674    -9.0523 Cl     35 CCL4  -0.0812 
 333 C      -27.9057   -13.4297    -8.1173 C.3    35 CCL4   0.3246 
 334 CL     -29.5922   -13.1371    -8.5828 Cl     35 CCL4  -0.0812 
 335 CL     -27.8291   -12.8688    -6.4825 Cl     35 CCL4  -0.0812 
 336 CL     -27.4881   -15.1425    -8.2276 Cl     35 CCL4  -0.0812 
 337 CL      -6.2267     0.7818    -5.9644 Cl     36 CCL4  -0.0812 
 338 C       -5.7808     1.6284    -7.4547 C.3    36 CCL4   0.3246 
 339 CL      -5.1042     3.2217    -6.9619 Cl     36 CCL4  -0.0812 
 340 CL      -7.3760     1.8853    -8.2044 Cl     36 CCL4  -0.0812 
 341 CL      -4.7092     0.7840    -8.6137 Cl     36 CCL4  -0.0812 
 342 CL     -23.6173    23.3063    -0.7140 Cl     37 CCL4  -0.0812 
 343 C      -24.8992    24.3948    -0.0852 C.3    37 CCL4   0.3246 
 344 CL     -25.1262    23.8608     1.6250 Cl     37 CCL4  -0.0812 
 345 CL     -26.3470    24.2703    -1.0544 Cl     37 CCL4  -0.0812 
 346 CL     -24.3745    26.0979    -0.1110 Cl     37 CCL4  -0.0812 
 347 CL     -31.4001   -16.4113     2.7541 Cl     38 CCL4  -0.0812 
 348 C      -29.7542   -15.9591     2.8797 C.3    38 CCL4   0.3246 
 349 CL     -29.4502   -14.2078     3.1019 Cl     38 CCL4  -0.0812 
 350 CL     -28.9091   -16.4939     1.4037 Cl     38 CCL4  -0.0812 
 351 CL     -28.9988   -16.8683     4.1270 Cl     38 CCL4  -0.0812 
 352 CL     -21.1633    -4.2535   -14.6401 Cl     39 CCL4  -0.0812 
 353 C      -21.8536    -5.3837   -13.4437 C.3    39 CCL4   0.3246 
 354 CL     -22.9897    -6.4790   -14.4426 Cl     39 CCL4  -0.0812 
 355 CL     -22.8064    -4.3349   -12.2927 Cl     39 CCL4  -0.0812 
 356 CL     -20.6848    -6.4527   -12.6794 Cl     39 CCL4  -0.0812 
 357 CL     -21.8596    -0.2512    -7.2585 Cl     40 CCL4  -0.0812 
 358 C      -22.2477    -0.5668    -9.0154 C.3    40 CCL4   0.3246 
 359 CL     -23.4467    -1.9882    -9.0322 Cl     40 CCL4  -0.0812 
 360 CL     -20.7045    -1.1540    -9.7784 Cl     40 CCL4  -0.0812 
 361 CL     -22.8917     0.8145    -9.7652 Cl     40 CCL4  -0.0812 
 362 CL     -25.7733    -1.5080   -11.8427 Cl     41 CCL4  -0.0812 
 363 C      -26.8980    -2.2991   -10.7463 C.3    41 CCL4   0.3246 
 364 CL     -26.4989    -3.9804   -10.4901 Cl     41 CCL4  -0.0812 
 365 CL     -28.5422    -2.1767   -11.4928 Cl     41 CCL4  -0.0812 
 366 CL     -26.9069    -1.5392    -9.1219 Cl     41 CCL4  -0.0812 
 367 CL     -21.0459    -1.2759   -16.2053 Cl     42 CCL4  -0.0812 
 368 C      -22.0374    -0.4456   -14.9263 C.3    42 CCL4   0.3246 
 369 CL     -21.9596    -1.1237   -13.3288 Cl     42 CCL4  -0.0812 
 370 CL     -23.7632    -0.3503   -15.3092 Cl     42 CCL4  -0.0812 
 371 CL     -21.4273     1.2499   -14.8917 Cl     42 CCL4  -0.0812 
 372 CL     -26.6409     4.1583    -7.0653 Cl     43 CCL4  -0.0812 
 373 C      -26.0957     2.4672    -7.3572 C.3    43 CCL4   0.3246 
 374 CL     -27.0558     1.3684    -6.3798 Cl     43 CCL4  -0.0812 
 375 CL     -24.4309     2.1922    -6.9566 Cl     43 CCL4  -0.0812 
 376 CL     -26.2871     2.0347    -9.0354 Cl     43 CCL4  -0.0812 
 377 CL     -28.4774     0.4799   -17.8436 Cl     44 CCL4  -0.0812 
 378 C      -28.8799     0.3524   -16.0347 C.3    44 CCL4   0.3246 
 379 CL     -29.6902    -1.2613   -15.8482 Cl     44 CCL4  -0.0812 
 380 CL     -30.2039     1.5121   -15.6963 Cl     44 CCL4  -0.0812 
 381 CL     -27.4414     0.3653   -15.0777 Cl     44 CCL4  -0.0812 
 382 CL     -26.0808    -6.0629   -16.0909 Cl     45 CCL4  -0.0812 
 383 C      -25.8201    -4.3504   -16.1859 C.3    45 CCL4   0.3246 
 384 CL     -26.9421    -3.4956   -17.1501 Cl     45 CCL4  -0.0812 
 385 CL     -24.0966    -4.1528   -16.9572 Cl     45 CCL4  -0.0812 
 386 CL     -25.5812    -3.6685   -14.5274 Cl     45 CCL4  -0.0812 
 387 CL      -7.4925    -7.7628    -8.8116 Cl     46 CCL4  -0.0812 
 388 C       -8.4547    -6.9718    -7.5501 C.3    46 CCL4   0.3246 
 389 CL      -7.4232    -6.3563    -6.2478 Cl     46 CCL4  -0.0812 
 390 CL      -9.6701    -7.9536    -6.8124 Cl     46 CCL4  -0.0812 
 391 CL      -9.1644    -5.3710    -8.3072 Cl     46 CCL4  -0.0812 
 392 CL      -6.7225    -2.2419   -10.1316 Cl     47 CCL4  -0.0812 
 393 C       -7.5360    -1.6178   -11.4875 C.3    47 CCL4   0.3246 
 394 CL      -9.1164    -2.4375   -11.5936 Cl     47 CCL4  -0.0812 
 395 CL      -6.8075    -1.9355   -12.9884 Cl     47 CCL4  -0.0812 
 396 CL      -7.7549     0.0817   -11.1908 Cl     47 CCL4  -0.0812 
 397 CL     -17.6191    -1.2163    -2.8276 Cl     48 CCL4  -0.0812 
 398 C      -19.2040    -1.2259    -2.0265 C.3    48 CCL4   0.3246 
 399 CL     -19.3409    -2.4355    -0.7099 Cl     48 CCL4  -0.0812 
 400 CL     -20.5504    -1.4623    -3.2652 Cl     48 CCL4  -0.0812 
 401 CL     -19.5624     0.4569    -1.4730 Cl     48 CCL4  -0.0812 
 402 CL     -20.2749    -3.4142    -6.7788 Cl     49 CCL4  -0.0812 
 403 C      -19.6173    -4.6274    -7.9038 C.3    49 CCL4   0.3246 
 404 CL     -20.7597    -5.0395    -9.1533 Cl     49 CCL4  -0.0812 
 405 CL     -19.1229    -6.0425    -7.0704 Cl     49 CCL4  -0.0812 
 406 CL     -18.2776    -3.9169    -8.7832 Cl     49 CCL4  -0.0812 
 407 CL     -15.7534    -1.5468    -8.3095 Cl     50 CCL4  -0.0812 
 408 C      -16.2486    -1.7500    -6.5051 C.3    50 CCL4   0.3246 
 409 CL     -17.9260    -1.0516    -6.2102 Cl     50 CCL4  -0.0812 
 410 CL     -15.0221    -0.8046    -5.5220 Cl     50 CCL4  -0.0812 
 411 CL     -16.1537    -3.4527    -6.0251 Cl     50 CCL4  -0.0812 
 412 CL     -24.7560    -6.5308    -1.6976 Cl     51 CCL4  -0.0812 
 413 C      -26.2800    -6.9404    -2.4769 C.3    51 CCL4   0.3246 
 414 CL     -27.6734    -6.1957    -1.7544 Cl     51 CCL4  -0.0812 
 415 CL     -26.4385    -8.7219    -2.5016 Cl     51 CCL4  -0.0812 
 416 CL     -26.1971    -6.4405    -4.1374 Cl     51 CCL4  -0.0812 
 417 CL     -24.8640    -1.3188    -5.2716 Cl     52 CCL4  -0.0812 
 418 C      -25.2226    -3.1031    -5.2562 C.3    52 CCL4   0.3246 
 419 CL     -26.3697    -3.6767    -6.4353 Cl     52 CCL4  -0.0812 
 420 CL     -25.9861    -3.3368    -3.6044 Cl     52 CCL4  -0.0812 
 421 CL     -23.7350    -4.1115    -5.3134 Cl     52 CCL4  -0.0812 
 422 CL     -18.5370     4.3646    -5.7280 Cl     53 CCL4  -0.0812 
 423 C      -18.4195     2.6040    -5.8774 C.3    53 CCL4   0.3246 
 424 CL     -16.8102     2.0901    -5.4561 Cl     53 CCL4  -0.0812 
 425 CL     -18.5001     2.1514    -7.6096 Cl     53 CCL4  -0.0812 
 426 CL     -19.5788     1.8264    -4.8292 Cl     53 CCL4  -0.0812 
 427 CL     -28.3237     1.1995    -2.8509 Cl     54 CCL4  -0.0812 
 428 C      -27.7848     0.1267    -1.4466 C.3    54 CCL4   0.3246 
 429 CL     -28.6160    -1.4163    -1.5309 Cl     54 CCL4  -0.0812 
 430 CL     -28.2694     0.9379     0.0290 Cl     54 CCL4  -0.0812 
 431 CL     -25.9684    -0.0939    -1.6606 Cl     54 CCL4  -0.0812 
 432 CL     -22.9170    -3.6539    -1.7214 Cl     55 CCL4  -0.0812 
 433 C      -23.3659    -3.1642    -0.0738 C.3    55 CCL4   0.3246 
 434 CL     -22.6890    -4.5796     0.8605 Cl     55 CCL4  -0.0812 
 435 CL     -25.1441    -3.0973     0.1491 Cl     55 CCL4  -0.0812 
 436 CL     -22.6881    -1.6026     0.3729 Cl     55 CCL4  -0.0812 
 437 CL     -18.6738    -6.7288    -1.1547 Cl     56 CCL4  -0.0812 
 438 C      -19.3076    -6.5962    -2.8135 C.3    56 CCL4   0.3246 
 439 CL     -18.2982    -7.4096    -4.0001 Cl     56 CCL4  -0.0812 
 440 CL     -19.5185    -4.7991    -3.2684 Cl     56 CCL4  -0.0812 
 441 CL     -20.8688    -7.3468    -2.9139 Cl     56 CCL4  -0.0812 
 442 CL     -12.2157    -1.2020    -7.5532 Cl     57 CCL4  -0.0812 
 443 C      -10.5818    -0.8117    -6.9693 C.3    57 CCL4   0.3246 
 444 CL     -10.4655     0.9604    -6.6619 Cl     57 CCL4  -0.0812 
 445 CL      -9.3592    -1.3228    -8.1861 Cl     57 CCL4  -0.0812 
 446 CL     -10.2940    -1.5421    -5.3853 Cl     57 CCL4  -0.0812 
 447 CL     -29.8402    -4.2241    -4.4757 Cl     58 CCL4  -0.0812 
 448 C      -29.9311    -3.3615    -6.0329 C.3    58 CCL4   0.3246 
 449 CL     -29.1028    -1.7206    -6.0369 Cl     58 CCL4  -0.0812 
 450 CL     -31.6582    -2.8464    -6.2073 Cl     58 CCL4  -0.0812 
 451 CL     -29.3337    -4.3273    -7.4336 Cl     58 CCL4  -0.0812 
 452 CL     -28.7994    -7.7056    -5.7058 Cl     59 CCL4  -0.0812 
 453 C      -27.7156    -8.3037    -6.9748 C.3    59 CCL4   0.3246 
 454 CL     -28.6619    -9.6353    -7.6789 Cl     59 CCL4  -0.0812 
 455 CL     -26.3835    -9.1557    -6.1615 Cl     59 CCL4  -0.0812 
 456 CL     -27.2078    -7.0524    -8.1426 Cl     59 CCL4  -0.0812 
 457 CL     -15.4773    -4.2265    -1.5762 Cl     60 CCL4  -0.0812 
 458 C      -15.3661    -4.4094     0.1624 C.3    60 CCL4   0.3246 
 459 CL     -13.6850    -3.7292     0.5953 Cl     60 CCL4  -0.0812 
 460 CL     -15.4737    -6.1653     0.5545 Cl     60 CCL4  -0.0812 
 461 CL     -16.5601    -3.4738     1.0421 Cl     60 CCL4  -0.0812 
 462 CL     -13.2041    -6.1116   -16.1463 Cl     61 CCL4  -0.0812 
 463 C      -12.6731    -4.7642   -15.1660 C.3    61 CCL4   0.3246 
 464 CL     -12.9201    -3.1972   -16.0638 Cl     61 CCL4  -0.0812 
 465 CL     -10.9209    -4.9950   -14.9076 Cl     61 CCL4  -0.0812 
 466 CL     -13.6074    -4.7123   -13.5928 Cl     61 CCL4  -0.0812 
 467 CL     -15.0380   -11.9183   -13.2519 Cl     62 CCL4  -0.0812 
 468 C      -15.5881   -13.2903   -12.2942 C.3    62 CCL4   0.3246 
 469 CL     -16.5746   -12.7385   -10.9289 Cl     62 CCL4  -0.0812 
 470 CL     -14.1583   -14.0901   -11.6926 Cl     62 CCL4  -0.0812 
 471 CL     -16.6249   -14.3591   -13.3614 Cl     62 CCL4  -0.0812 
 472 CL      -9.9452   -10.8510     2.0693 Cl     63 CCL4  -0.0812 
 473 C       -9.1471   -12.1504     2.9852 C.3    63 CCL4   0.3246 
 474 CL     -10.5228   -12.9863     3.7084 Cl     63 CCL4  -0.0812 
 475 CL      -8.1276   -11.3687     4.1341 Cl     63 CCL4  -0.0812 
 476 CL      -8.3217   -13.2154     1.9381 Cl     63 CCL4  -0.0812 
 477 CL     -10.1968    -9.8284    22.9457 Cl     64 CCL4  -0.0812 
 478 C       -8.7250    -8.8704    22.8414 C.3    64 CCL4   0.3246 
 479 CL      -7.2445    -9.8861    22.9761 Cl     64 CCL4  -0.0812 
 480 CL      -8.6391    -7.5837    24.0252 Cl     64 CCL4  -0.0812 
 481 CL      -8.6044    -8.0400    21.2411 Cl     64 CCL4  -0.0812 
 482 CL     -11.1976   -15.1456   -13.2997 Cl     65 CCL4  -0.0812 
 483 C      -10.4744   -13.5629   -13.2619 C.3    65 CCL4   0.3246 
 484 CL     -10.1420   -13.1964   -11.4742 Cl     65 CCL4  -0.0812 
 485 CL     -11.6120   -12.2977   -13.7865 Cl     65 CCL4  -0.0812 
 486 CL      -8.9902   -13.3682   -14.1910 Cl     65 CCL4  -0.0812 
 487 CL      -9.5714    -6.3621   -11.9879 Cl     66 CCL4  -0.0812 
 488 C      -10.1096    -8.1230   -12.0726 C.3    66 CCL4   0.3246 
 489 CL     -11.5624    -8.1213   -13.1415 Cl     66 CCL4  -0.0812 
 490 CL     -10.4137    -8.7189   -10.4490 Cl     66 CCL4  -0.0812 
 491 CL      -8.7505    -9.1115   -12.6757 Cl     66 CCL4  -0.0812 
 492 CL     -14.2387   -12.4786   -17.0778 Cl     67 CCL4  -0.0812 
 493 C      -13.3711   -13.9633   -17.0227 C.3    67 CCL4   0.3246 
 494 CL     -13.8901   -15.2014   -18.2353 Cl     67 CCL4  -0.0812 
 495 CL     -13.7261   -14.7691   -15.3386 Cl     67 CCL4  -0.0812 
 496 CL     -11.5757   -13.8068   -17.0656 Cl     67 CCL4  -0.0812 
 497 CL     -13.8584     0.0870   -11.4054 Cl     68 CCL4  -0.0812 
 498 C      -12.2187     0.5281   -11.9050 C.3    68 CCL4   0.3246 
 499 CL     -11.2825     0.8912   -10.5298 Cl     68 CCL4  -0.0812 
 500 CL     -12.2951     2.0529   -12.7987 Cl     68 CCL4  -0.0812 
 501 CL     -11.6103    -0.8108   -12.8636 Cl     68 CCL4  -0.0812 
 502 CL     -16.4698     0.0561   -17.3961 Cl     69 CCL4  -0.0812 
 503 C      -14.7854     0.3077   -16.9271 C.3    69 CCL4   0.3246 
 504 CL     -14.4858    -0.3127   -15.3093 Cl     69 CCL4  -0.0812 
 505 CL     -14.6562     2.1317   -16.9189 Cl     69 CCL4  -0.0812 
 506 CL     -13.7882    -0.5043   -18.2544 Cl     69 CCL4  -0.0812 
 507 CL     -11.8064   -12.3837    -7.8536 Cl     70 CCL4  -0.0812 
 508 C      -13.0648   -11.2930    -8.5003 C.3    70 CCL4   0.3246 
 509 CL     -14.7710   -11.9969    -7.9721 Cl     70 CCL4  -0.0812 
 510 CL     -13.0443   -11.2211   -10.2718 Cl     70 CCL4  -0.0812 
 511 CL     -13.1360    -9.6875    -7.7159 Cl     70 CCL4  -0.0812 
 512 CL     -15.7925    -8.1703    -9.4357 Cl     71 CCL4  -0.0812 
 513 C      -16.4703    -7.8207   -10.9991 C.3    71 CCL4   0.3246 
 514 CL     -17.2888    -9.3181   -11.4305 Cl     71 CCL4  -0.0812 
 515 CL     -15.3360    -7.4093   -12.3322 Cl     71 CCL4  -0.0812 
 516 CL     -17.7105    -6.5375   -10.9713 Cl     71 CCL4  -0.0812 
 517 CL     -13.4410   -15.3409    -6.9613 Cl     72 CCL4  -0.0812 
 518 C      -11.9621   -16.0245    -7.6507 C.3    72 CCL4   0.3246 
 519 CL     -11.7475   -15.2618    -9.2897 Cl     72 CCL4  -0.0812 
 520 CL     -12.0666   -17.7761    -7.7619 Cl     72 CCL4  -0.0812 
 521 CL     -10.5503   -15.6369    -6.6658 Cl     72 CCL4  -0.0812 
 522 CL     -28.4609   -13.7859    -2.7853 Cl     73 CCL4  -0.0812 
 523 C      -28.8890   -12.7844    -1.4113 C.3    73 CCL4   0.3246 
 524 CL     -29.2609   -11.1065    -1.8433 Cl     73 CCL4  -0.0812 
 525 CL     -30.4545   -13.3548    -0.7066 Cl     73 CCL4  -0.0812 
 526 CL     -27.6462   -12.8962    -0.1325 Cl     73 CCL4  -0.0812 
 527 CL     -11.9514    -6.4675     1.8655 Cl     74 CCL4  -0.0812 
 528 C      -10.3539    -6.8360     1.1870 C.3    74 CCL4   0.3246 
 529 CL      -9.7060    -5.3383     0.3319 Cl     74 CCL4  -0.0812 
 530 CL     -10.5416    -8.1566     0.0561 Cl     74 CCL4  -0.0812 
 531 CL      -9.2014    -7.3281     2.5365 Cl     74 CCL4  -0.0812 
 532 CL     -15.2224     4.9006    -8.1543 Cl     75 CCL4  -0.0812 
 533 C      -13.9521     3.6554    -8.3049 C.3    75 CCL4   0.3246 
 534 CL     -12.9703     3.6503    -6.8068 Cl     75 CCL4  -0.0812 
 535 CL     -13.0978     4.0409    -9.8823 Cl     75 CCL4  -0.0812 
 536 CL     -14.6685     2.0195    -8.3955 Cl     75 CCL4  -0.0812 
 537 CL     -15.3599     1.6167    -1.9908 Cl     76 CCL4  -0.0812 
 538 C      -13.6973     1.0197    -2.1576 C.3    76 CCL4   0.3246 
 539 CL     -13.1161     1.6773    -3.7403 Cl     76 CCL4  -0.0812 
 540 CL     -13.5711    -0.7091    -1.9992 Cl     76 CCL4  -0.0812 
 541 CL     -12.7412     1.7822    -0.8005 Cl     76 CCL4  -0.0812 
 542 CL     -11.6112   -13.5015     0.2732 Cl     77 CCL4  -0.0812 
 543 C      -12.6412   -12.7261    -0.9819 C.3    77 CCL4   0.3246 
 544 CL     -13.6914   -13.9567    -1.6816 Cl     77 CCL4  -0.0812 
 545 CL     -11.6866   -11.9234    -2.2306 Cl     77 CCL4  -0.0812 
 546 CL     -13.6719   -11.5294    -0.0281 Cl     77 CCL4  -0.0812 
 547 CL      -8.9143   -13.9873    -1.6260 Cl     78 CCL4  -0.0812 
 548 C       -8.9198   -15.6344    -2.0491 C.3    78 CCL4   0.3246 
 549 CL      -8.4557   -16.5566    -0.5507 Cl     78 CCL4  -0.0812 
 550 CL      -7.7658   -16.0075    -3.2572 Cl     78 CCL4  -0.0812 
 551 CL     -10.5202   -16.1291    -2.4624 Cl     78 CCL4  -0.0812 
 552 CL     -10.0688    -4.7592    -4.2744 Cl     79 CCL4  -0.0812 
 553 C      -11.4158    -4.4170    -3.2427 C.3    79 CCL4   0.3246 
 554 CL     -12.7464    -3.7058    -4.1692 Cl     79 CCL4  -0.0812 
 555 CL     -10.9102    -2.9819    -2.3081 Cl     79 CCL4  -0.0812 
 556 CL     -12.1056    -5.7571    -2.2100 Cl     79 CCL4  -0.0812 
 557 CL     -16.8140    -6.4841    22.1124 Cl     80 CCL4  -0.0812 
 558 C      -17.2392    -4.6862    21.7411 C.3    80 CCL4   0.3246 
 559 CL     -16.3295    -3.5696    22.7520 Cl     80 CCL4  -0.0812 
 560 CL     -18.9737    -4.4654    22.1598 Cl     80 CCL4  -0.0812 
 561 CL     -16.8430    -4.3313    20.0760 Cl     80 CCL4  -0.0812 
 562 CL     -12.1920    -3.6753    -9.9395 Cl     81 CCL4  -0.0812 
 563 C      -13.2097    -4.9374    -9.1478 C.3    81 CCL4   0.3246 
 564 CL     -12.8598    -5.0323    -7.3901 Cl     81 CCL4  -0.0812 
 565 CL     -12.8941    -6.5377    -9.8314 Cl     81 CCL4  -0.0812 
 566 CL     -14.9736    -4.6352    -9.4848 Cl     81 CCL4  -0.0812 
 567 CL     -17.9221    -1.7269   -14.5573 Cl     82 CCL4  -0.0812 
 568 C      -17.4898    -2.9926   -13.4146 C.3    82 CCL4   0.3246 
 569 CL     -18.7916    -2.9645   -12.2723 Cl     82 CCL4  -0.0812 
 570 CL     -15.9183    -2.6301   -12.5181 Cl     82 CCL4  -0.0812 
 571 CL     -17.2306    -4.5094   -14.1896 Cl     82 CCL4  -0.0812 
 572 CL     -17.6208     1.6938   -13.3681 Cl     83 CCL4  -0.0812 
 573 C      -17.9956     1.9007   -11.6857 C.3    83 CCL4   0.3246 
 574 CL     -17.0521     3.3246   -11.1717 Cl     83 CCL4  -0.0812 
 575 CL     -17.4885     0.4665   -10.8103 Cl     83 CCL4  -0.0812 
 576 CL     -19.6759     2.2046   -11.3081 Cl     83 CCL4  -0.0812 
 577 CL      19.4837    -7.4219    10.6543 Cl     84 CCL4  -0.0812 
 578 C       19.2494    -5.7804    11.3185 C.3    84 CCL4   0.3246 
 579 CL      17.7546    -5.1535    10.6102 Cl     84 CCL4  -0.0812 
 580 CL      20.6724    -4.7239    11.0960 Cl     84 CCL4  -0.0812 
 581 CL      19.0377    -5.9912    13.0819 Cl     84 CCL4  -0.0812 
 582 CL     -18.3784    -9.3761     7.5135 Cl     85 CCL4  -0.0812 
 583 C      -17.8771    -9.3763     9.1339 C.3    85 CCL4   0.3246 
 584 CL     -18.2136   -10.8719     9.9187 Cl     85 CCL4  -0.0812 
 585 CL     -18.4353    -8.0209    10.0201 Cl     85 CCL4  -0.0812 
 586 CL     -16.0850    -9.2498     9.1117 Cl     85 CCL4  -0.0812 
 587 CL     -20.4937    22.6095    13.3011 Cl     86 CCL4  -0.0812 
 588 C      -21.0915    23.6273    11.9060 C.3    86 CCL4   0.3246 
 589 CL     -22.3300    22.8486    10.8234 Cl     86 CCL4  -0.0812 
 590 CL     -19.7139    24.1881    10.9069 Cl     86 CCL4  -0.0812 
 591 CL     -21.8224    25.1661    12.6465 Cl     86 CCL4  -0.0812 
 592 CL     -26.2253    -7.0696    12.5480 Cl     87 CCL4  -0.0812 
 593 C      -25.9391    -8.8245    12.6752 C.3    87 CCL4   0.3246 
 594 CL     -26.1839    -9.3397    14.3659 Cl     87 CCL4  -0.0812 
 595 CL     -24.4000    -9.4239    12.1117 Cl     87 CCL4  -0.0812 
 596 CL     -27.1931    -9.6377    11.7073 Cl     87 CCL4  -0.0812 
 597 CL     -24.7760     1.8125    12.7303 Cl     88 CCL4  -0.0812 
 598 C      -24.2418     3.3739    12.0449 C.3    88 CCL4   0.3246 
 599 CL     -25.1699     4.7889    12.5787 Cl     88 CCL4  -0.0812 
 600 CL     -24.0951     3.3841    10.2974 Cl     88 CCL4  -0.0812 
 601 CL     -22.6083     3.6396    12.7021 Cl     88 CCL4  -0.0812 
 602 CL     -20.7796    -9.9872    12.3807 Cl     89 CCL4  -0.0812 
 603 C      -21.2881   -11.7145    12.5968 C.3    89 CCL4   0.3246 
 604 CL     -19.8610   -12.6579    13.0610 Cl     89 CCL4  -0.0812 
 605 CL     -21.9492   -12.3972    11.1444 Cl     89 CCL4  -0.0812 
 606 CL     -22.3837   -11.8299    14.0478 Cl     89 CCL4  -0.0812 
 607 CL     -25.3730    23.9246    12.3260 Cl     90 CCL4  -0.0812 
 608 C      -26.1170    24.4153    13.8773 C.3    90 CCL4   0.3246 
 609 CL     -24.8930    24.9039    14.9500 Cl     90 CCL4  -0.0812 
 610 CL     -26.9939    23.0017    14.4932 Cl     90 CCL4  -0.0812 
 611 CL     -27.3075    25.7579    13.5724 Cl     90 CCL4  -0.0812 
 612 CL      -9.2292    -1.5683     9.8398 Cl     91 CCL4  -0.0812 
 613 C       -9.2746     0.0519     9.1575 C.3    91 CCL4   0.3246 
 614 CL      -9.0295     1.3262    10.5147 Cl     91 CCL4  -0.0812 
 615 CL     -10.8900     0.4476     8.5023 Cl     91 CCL4  -0.0812 
 616 CL      -8.1082     0.4775     7.9017 Cl     91 CCL4  -0.0812 
 617 CL     -17.2492     4.5448     8.4727 Cl     92 CCL4  -0.0812 
 618 C      -19.0480     4.1293     8.4684 C.3    92 CCL4   0.3246 
 619 CL     -19.2583     2.4299     7.8607 Cl     92 CCL4  -0.0812 
 620 CL     -19.8911     5.2509     7.4174 Cl     92 CCL4  -0.0812 
 621 CL     -19.7190     4.4123    10.1330 Cl     92 CCL4  -0.0812 
 622 CL     -25.3324     2.2035     7.4341 Cl     93 CCL4  -0.0812 
 623 C      -23.8108     2.4926     6.5762 C.3    93 CCL4   0.3246 
 624 CL     -23.4745     4.2645     7.0153 Cl     93 CCL4  -0.0812 
 625 CL     -24.0452     2.4248     4.8259 Cl     93 CCL4  -0.0812 
 626 CL     -22.4505     1.4067     6.9594 Cl     93 CCL4  -0.0812 
 627 CL     -16.3227   -11.7892     2.8397 Cl     94 CCL4  -0.0812 
 628 C      -15.3219   -13.1153     3.5935 C.3    94 CCL4   0.3246 
 629 CL     -14.9048   -14.1940     2.2497 Cl     94 CCL4  -0.0812 
 630 CL     -16.2582   -13.9120     4.8310 Cl     94 CCL4  -0.0812 
 631 CL     -13.8943   -12.3863     4.3368 Cl     94 CCL4  -0.0812 
 632 CL     -19.1486   -12.5141     6.5953 Cl     95 CCL4  -0.0812 
 633 C      -19.3961   -14.0848     7.3611 C.3    95 CCL4   0.3246 
 634 CL     -20.7749   -14.0486     8.4445 Cl     95 CCL4  -0.0812 
 635 CL     -17.9390   -14.5708     8.3062 Cl     95 CCL4  -0.0812 
 636 CL     -19.6188   -15.3649     6.0821 Cl     95 CCL4  -0.0812 
 637 CL     -25.9499   -14.2889     3.4141 Cl     96 CCL4  -0.0812 
 638 C      -25.4783   -14.8822     5.0246 C.3    96 CCL4   0.3246 
 639 CL     -26.6584   -14.2996     6.1837 Cl     96 CCL4  -0.0812 
 640 CL     -23.9412   -14.1389     5.4769 Cl     96 CCL4  -0.0812 
 641 CL     -25.2733   -16.6344     4.9502 Cl     96 CCL4  -0.0812 
 642 CL     -22.3513    -7.8996     6.6474 Cl     97 CCL4  -0.0812 
 643 C      -22.7374    -9.3548     7.6954 C.3    97 CCL4   0.3246 
 644 CL     -24.4410    -9.3294     8.3059 Cl     97 CCL4  -0.0812 
 645 CL     -21.6110    -9.4993     9.0940 Cl     97 CCL4  -0.0812 
 646 CL     -22.3541   -10.7582     6.6664 Cl     97 CCL4  -0.0812 
 647 CL     -29.5205   -11.3742     5.8342 Cl     98 CCL4  -0.0812 
 648 C      -28.2752   -10.4406     6.6702 C.3    98 CCL4   0.3246 
 649 CL     -28.4653   -10.8958     8.4675 Cl     98 CCL4  -0.0812 
 650 CL     -28.6492    -8.6461     6.7743 Cl     98 CCL4  -0.0812 
 651 CL     -26.7641   -10.9467     6.0803 Cl     98 CCL4  -0.0812 
 652 CL     -24.5002   -14.9687     9.5638 Cl     99 CCL4  -0.0812 
 653 C      -25.5143   -13.7294    10.2877 C.3    99 CCL4   0.3246 
 654 CL     -25.1850   -12.2043     9.4441 Cl     99 CCL4  -0.0812 
 655 CL     -24.8934   -13.4854    12.0058 Cl     99 CCL4  -0.0812 
 656 CL     -27.1898   -14.2559    10.2604 Cl     99 CCL4  -0.0812 
 657 CL      -5.2724    -9.5406    13.4776 Cl    100 CCL4  -0.0812 
 658 C       -5.6017   -11.1682    12.8209 C.3   100 CCL4   0.3246 
 659 CL      -6.8526   -12.0071    13.7073 Cl    100 CCL4  -0.0812 
 660 CL      -4.2094   -12.1711    13.0546 Cl    100 CCL4  -0.0812 
 661 CL      -6.0146   -10.9194    11.0702 Cl    100 CCL4  -0.0812 
 662 CL      -4.9875    23.5942    13.2763 Cl    101 CCL4  -0.0812 
 663 C       -6.4530    24.4700    12.7516 C.3   101 CCL4   0.3246 
 664 CL      -5.8880    25.7138    11.5989 Cl    101 CCL4  -0.0812 
 665 CL      -7.3453    25.2189    14.0504 Cl    101 CCL4  -0.0812 
 666 CL      -7.5545    23.3838    11.7664 Cl    101 CCL4  -0.0812 
 667 CL     -28.3878     4.1368    11.9326 Cl    102 CCL4  -0.0812 
 668 C      -29.7447     3.3740    12.8220 C.3   102 CCL4   0.3246 
 669 CL     -31.2636     3.9566    12.0597 Cl    102 CCL4  -0.0812 
 670 CL     -29.7357     3.9654    14.4725 Cl    102 CCL4  -0.0812 
 671 CL     -29.4764     1.6366    12.7269 Cl    102 CCL4  -0.0812 
 672 CL     -26.7371     4.7228     5.1557 Cl    103 CCL4  -0.0812 
 673 C      -27.4645     3.9554     3.6542 C.3   103 CCL4   0.3246 
 674 CL     -28.7677     4.9648     2.9651 Cl    103 CCL4  -0.0812 
 675 CL     -27.6495     2.2203     3.8347 Cl    103 CCL4  -0.0812 
 676 CL     -25.9922     4.0748     2.5110 Cl    103 CCL4  -0.0812 
 677 CL      -7.4603   -15.9158     8.1664 Cl    104 CCL4  -0.0812 
 678 C       -6.9162   -14.4066     7.4385 C.3   104 CCL4   0.3246 
 679 CL      -5.6453   -13.6260     8.4820 Cl    104 CCL4  -0.0812 
 680 CL      -8.2283   -13.1641     7.3434 Cl    104 CCL4  -0.0812 
 681 CL      -6.2481   -14.5176     5.8710 Cl    104 CCL4  -0.0812 
 682 CL     -25.8880    25.6579    20.9481 Cl    105 CCL4  -0.0812 
 683 C      -25.4158    24.1920    19.9583 C.3   105 CCL4   0.3246 
 684 CL     -26.9598    23.6753    19.2055 Cl    105 CCL4  -0.0812 
 685 CL     -24.6382    22.8718    20.9373 Cl    105 CCL4  -0.0812 
 686 CL     -24.3364    24.7770    18.7011 Cl    105 CCL4  -0.0812 
 687 CL      -4.7469    25.1085    19.2824 Cl    106 CCL4  -0.0812 
 688 C       -5.7095    23.7298    18.5623 C.3   106 CCL4   0.3246 
 689 CL      -4.8665    23.0862    17.1085 Cl    106 CCL4  -0.0812 
 690 CL      -7.2775    24.3614    18.0835 Cl    106 CCL4  -0.0812 
 691 CL      -6.0308    22.3465    19.7240 Cl    106 CCL4  -0.0812 
 692 CL     -20.1287   -11.9355    17.1077 Cl    107 CCL4  -0.0812 
 693 C      -19.2278   -10.8627    18.1814 C.3   107 CCL4   0.3246 
 694 CL     -18.0679    -9.7754    17.3729 Cl    107 CCL4  -0.0812 
 695 CL     -18.2558   -11.9474    19.4294 Cl    107 CCL4  -0.0812 
 696 CL     -20.3338    -9.8972    19.1611 Cl    107 CCL4  -0.0812 
 697 CL     -21.2060    -8.6158    15.9261 Cl    108 CCL4  -0.0812 
 698 C      -22.7800    -8.3382    16.7956 C.3   108 CCL4   0.3246 
 699 CL     -22.5068    -7.3902    18.2279 Cl    108 CCL4  -0.0812 
 700 CL     -23.4813    -9.9554    17.2411 Cl    108 CCL4  -0.0812 
 701 CL     -23.8099    -7.4562    15.7438 Cl    108 CCL4  -0.0812 
 702 CL     -16.1974   -16.4618    15.4891 Cl    109 CCL4  -0.0812 
 703 C      -17.7357   -16.0374    16.0776 C.3   109 CCL4   0.3246 
 704 CL     -18.8176   -15.7186    14.6351 Cl    109 CCL4  -0.0812 
 705 CL     -17.6460   -14.5875    17.0153 Cl    109 CCL4  -0.0812 
 706 CL     -18.4705   -17.3204    17.0050 Cl    109 CCL4  -0.0812 
 707 CL     -26.8106   -12.4674    15.9477 Cl    110 CCL4  -0.0812 
 708 C      -27.9057   -13.4297    16.8827 C.3   110 CCL4   0.3246 
 709 CL     -29.5922   -13.1371    16.4172 Cl    110 CCL4  -0.0812 
 710 CL     -27.8291   -12.8688    18.5175 Cl    110 CCL4  -0.0812 
 711 CL     -27.4881   -15.1425    16.7724 Cl    110 CCL4  -0.0812 
 712 CL      -6.2267     0.7818    19.0356 Cl    111 CCL4  -0.0812 
 713 C       -5.7808     1.6284    17.5453 C.3   111 CCL4   0.3246 
 714 CL      -5.1042     3.2217    18.0381 Cl    111 CCL4  -0.0812 
 715 CL      -7.3760     1.8853    16.7956 Cl    111 CCL4  -0.0812 
 716 CL      -4.7092     0.7840    16.3863 Cl    111 CCL4  -0.0812 
 717 CL     -21.1633    -4.2535    10.3599 Cl    112 CCL4  -0.0812 
 718 C      -21.8536    -5.3837    11.5563 C.3   112 CCL4   0.3246 
 719 CL     -22.9897    -6.4790    10.5574 Cl    112 CCL4  -0.0812 
 720 CL     -22.8064    -4.3349    12.7073 Cl    112 CCL4  -0.0812 
 721 CL     -20.6848    -6.4527    12.3206 Cl    112 CCL4  -0.0812 
 722 CL     -21.8596    -0.2512    17.7415 Cl    113 CCL4  -0.0812 
 723 C      -22.2477    -0.5668    15.9846 C.3   113 CCL4   0.3246 
 724 CL     -23.4467    -1.9882    15.9678 Cl    113 CCL4  -0.0812 
 725 CL     -20.7045    -1.1540    15.2216 Cl    113 CCL4  -0.0812 
 726 CL     -22.8917     0.8145    15.2348 Cl    113 CCL4  -0.0812 
 727 CL     -25.7733    -1.5080    13.1573 Cl    114 CCL4  -0.0812 
 728 C      -26.8980    -2.2991    14.2537 C.3   114 CCL4   0.3246 
 729 CL     -26.4989    -3.9804    14.5099 Cl    114 CCL4  -0.0812 
 730 CL     -28.5422    -2.1767    13.5072 Cl    114 CCL4  -0.0812 
 731 CL     -26.9069    -1.5392    15.8781 Cl    114 CCL4  -0.0812 
 732 CL     -21.0459    -1.2759     8.7947 Cl    115 CCL4  -0.0812 
 733 C      -22.0374    -0.4456    10.0737 C.3   115 CCL4   0.3246 
 734 CL     -21.9596    -1.1237    11.6712 Cl    115 CCL4  -0.0812 
 735 CL     -23.7632    -0.3503     9.6908 Cl    115 CCL4  -0.0812 
 736 CL     -21.4273     1.2499    10.1083 Cl    115 CCL4  -0.0812 
 737 CL     -19.5953    -2.8233     3.3825 Cl    116 CCL4  -0.0812 
 738 C      -20.2325    -1.7348     4.6712 C.3   116 CCL4   0.3246 
 739 CL     -21.5549    -2.4566     5.6538 Cl    116 CCL4  -0.0812 
 740 CL     -20.7784    -0.2839     3.8440 Cl    116 CCL4  -0.0812 
 741 CL     -18.8763    -1.2036     5.6231 Cl    116 CCL4  -0.0812 
 742 CL     -25.8784    -8.0205     4.6658 Cl    117 CCL4  -0.0812 
 743 C      -25.3662    -6.5686     3.9040 C.3   117 CCL4   0.3246 
 744 CL     -25.5665    -5.2251     4.9856 Cl    117 CCL4  -0.0812 
 745 CL     -26.2116    -6.1587     2.4298 Cl    117 CCL4  -0.0812 
 746 CL     -23.5797    -6.6036     3.5885 Cl    117 CCL4  -0.0812 
 747 CL     -25.4101    -0.7533     5.4122 Cl    118 CCL4  -0.0812 
 748 C      -25.4645    -1.3295     3.7681 C.3   118 CCL4   0.3246 
 749 CL     -25.3579    -0.0196     2.5763 Cl    118 CCL4  -0.0812 
 750 CL     -27.0066    -2.0801     3.6245 Cl    118 CCL4  -0.0812 
 751 CL     -24.0719    -2.3613     3.4340 Cl    118 CCL4  -0.0812 
 752 CL     -28.4774     0.4799     7.1564 Cl    119 CCL4  -0.0812 
 753 C      -28.8799     0.3524     8.9653 C.3   119 CCL4   0.3246 
 754 CL     -29.6902    -1.2613     9.1518 Cl    119 CCL4  -0.0812 
 755 CL     -30.2039     1.5121     9.3037 Cl    119 CCL4  -0.0812 
 756 CL     -27.4414     0.3653     9.9223 Cl    119 CCL4  -0.0812 
 757 CL     -26.0808    -6.0629     8.9091 Cl    120 CCL4  -0.0812 
 758 C      -25.8201    -4.3504     8.8141 C.3   120 CCL4   0.3246 
 759 CL     -26.9421    -3.4956     7.8499 Cl    120 CCL4  -0.0812 
 760 CL     -24.0966    -4.1528     8.0428 Cl    120 CCL4  -0.0812 
 761 CL     -25.5812    -3.6685    10.4726 Cl    120 CCL4  -0.0812 
 762 CL      19.5762    -5.3308     7.3409 Cl    121 CCL4  -0.0812 
 763 C       19.2449    -4.5624     5.7677 C.3   121 CCL4   0.3246 
 764 CL      17.6058    -4.7631     5.2356 Cl    121 CCL4  -0.0812 
 765 CL      20.2461    -5.2265     4.5146 Cl    121 CCL4  -0.0812 
 766 CL      19.4700    -2.8351     5.9196 Cl    121 CCL4  -0.0812 
 767 CL      -7.4925    -7.7628    16.1884 Cl    122 CCL4  -0.0812 
 768 C       -8.4547    -6.9718    17.4499 C.3   122 CCL4   0.3246 
 769 CL      -7.4232    -6.3563    18.7522 Cl    122 CCL4  -0.0812 
 770 CL      -9.6701    -7.9536    18.1876 Cl    122 CCL4  -0.0812 
 771 CL      -9.1644    -5.3710    16.6928 Cl    122 CCL4  -0.0812 
 772 CL      -6.7225    -2.2419    14.8684 Cl    123 CCL4  -0.0812 
 773 C       -7.5360    -1.6178    13.5125 C.3   123 CCL4   0.3246 
 774 CL      -9.1164    -2.4375    13.4064 Cl    123 CCL4  -0.0812 
 775 CL      -6.8075    -1.9355    12.0116 Cl    123 CCL4  -0.0812 
 776 CL      -7.7549     0.0817    13.8092 Cl    123 CCL4  -0.0812 
 777 CL     -17.3689    -8.0930     3.9736 Cl    124 CCL4  -0.0812 
 778 C      -19.0705    -8.0349     3.6882 C.3   124 CCL4   0.3246 
 779 CL     -19.7764    -9.4981     4.1471 Cl    124 CCL4  -0.0812 
 780 CL     -19.4062    -7.5844     1.9483 Cl    124 CCL4  -0.0812 
 781 CL     -19.7252    -6.6666     4.7050 Cl    124 CCL4  -0.0812 
 782 CL     -20.2749    -3.4142    18.2212 Cl    125 CCL4  -0.0812 
 783 C      -19.6173    -4.6274    17.0962 C.3   125 CCL4   0.3246 
 784 CL     -20.7597    -5.0395    15.8467 Cl    125 CCL4  -0.0812 
 785 CL     -19.1229    -6.0425    17.9296 Cl    125 CCL4  -0.0812 
 786 CL     -18.2776    -3.9169    16.2168 Cl    125 CCL4  -0.0812 
 787 CL     -18.5370     4.3646    19.2720 Cl    126 CCL4  -0.0812 
 788 C      -18.4195     2.6040    19.1226 C.3   126 CCL4   0.3246 
 789 CL     -16.8102     2.0901    19.5439 Cl    126 CCL4  -0.0812 
 790 CL     -18.5001     2.1514    17.3904 Cl    126 CCL4  -0.0812 
 791 CL     -19.5788     1.8264    20.1708 Cl    126 CCL4  -0.0812 
 792 CL     -12.2157    -1.2020    17.4468 Cl    127 CCL4  -0.0812 
 793 C      -10.5818    -0.8117    18.0307 C.3   127 CCL4   0.3246 
 794 CL     -10.4655     0.9604    18.3381 Cl    127 CCL4  -0.0812 
 795 CL      -9.3592    -1.3228    16.8139 Cl    127 CCL4  -0.0812 
 796 CL     -10.2940    -1.5421    19.6147 Cl    127 CCL4  -0.0812 
 797 CL     -29.8402    -4.2241    20.5243 Cl    128 CCL4  -0.0812 
 798 C      -29.9311    -3.3615    18.9671 C.3   128 CCL4   0.3246 
 799 CL     -29.1028    -1.7206    18.9631 Cl    128 CCL4  -0.0812 
 800 CL     -31.6582    -2.8464    18.7927 Cl    128 CCL4  -0.0812 
 801 CL     -29.3337    -4.3273    17.5664 Cl    128 CCL4  -0.0812 
 802 CL     -28.7994    -7.7056    19.2942 Cl    129 CCL4  -0.0812 
 803 C      -27.7156    -8.3037    18.0252 C.3   129 CCL4   0.3246 
 804 CL     -28.6619    -9.6353    17.3211 Cl    129 CCL4  -0.0812 
 805 CL     -26.3835    -9.1557    18.8385 Cl    129 CCL4  -0.0812 
 806 CL     -27.2078    -7.0524    16.8574 Cl    129 CCL4  -0.0812 
 807 CL     -13.2041    -6.1116     8.8537 Cl    130 CCL4  -0.0812 
 808 C      -12.6731    -4.7642     9.8340 C.3   130 CCL4   0.3246 
 809 CL     -12.9201    -3.1972     8.9362 Cl    130 CCL4  -0.0812 
 810 CL     -10.9209    -4.9950    10.0924 Cl    130 CCL4  -0.0812 
 811 CL     -13.6074    -4.7123    11.4072 Cl    130 CCL4  -0.0812 
 812 CL     -15.0380   -11.9183    11.7481 Cl    131 CCL4  -0.0812 
 813 C      -15.5881   -13.2903    12.7058 C.3   131 CCL4   0.3246 
 814 CL     -16.5746   -12.7385    14.0711 Cl    131 CCL4  -0.0812 
 815 CL     -14.1583   -14.0901    13.3074 Cl    131 CCL4  -0.0812 
 816 CL     -16.6249   -14.3591    11.6386 Cl    131 CCL4  -0.0812 
 817 CL     -10.1968    -9.8284     7.9457 Cl    132 CCL4  -0.0812 
 818 C       -8.7250    -8.8704     7.8414 C.3   132 CCL4   0.3246 
 819 CL      -7.2445    -9.8861     7.9761 Cl    132 CCL4  -0.0812 
 820 CL      -8.6391    -7.5837     9.0252 Cl    132 CCL4  -0.0812 
 821 CL      -8.6044    -8.0400     6.2411 Cl    132 CCL4  -0.0812 
 822 CL     -11.1976   -15.1456    11.7003 Cl    133 CCL4  -0.0812 
 823 C      -10.4744   -13.5629    11.7381 C.3   133 CCL4   0.3246 
 824 CL     -10.1420   -13.1964    13.5258 Cl    133 CCL4  -0.0812 
 825 CL     -11.6120   -12.2977    11.2135 Cl    133 CCL4  -0.0812 
 826 CL      -8.9902   -13.3682    10.8090 Cl    133 CCL4  -0.0812 
 827 CL      -9.5714    -6.3621    13.0121 Cl    134 CCL4  -0.0812 
 828 C      -10.1096    -8.1230    12.9274 C.3   134 CCL4   0.3246 
 829 CL     -11.5624    -8.1213    11.8585 Cl    134 CCL4  -0.0812 
 830 CL     -10.4137    -8.7189    14.5510 Cl    134 CCL4  -0.0812 
 831 CL      -8.7505    -9.1115    12.3243 Cl    134 CCL4  -0.0812 
 832 CL      -9.5239    25.1104     4.9301 Cl    135 CCL4  -0.0812 
 833 C      -10.7351    24.0380     4.0122 C.3   135 CCL4   0.3246 
 834 CL     -10.9761    22.5333     4.9498 Cl    135 CCL4  -0.0812 
 835 CL     -10.0148    23.6510     2.3987 Cl    135 CCL4  -0.0812 
 836 CL     -12.2912    24.8826     3.9896 Cl    135 CCL4  -0.0812 
 837 CL     -14.2387   -12.4786     7.9222 Cl    136 CCL4  -0.0812 
 838 C      -13.3711   -13.9633     7.9773 C.3   136 CCL4   0.3246 
 839 CL     -13.8901   -15.2014     6.7647 Cl    136 CCL4  -0.0812 
 840 CL     -13.7261   -14.7691     9.6614 Cl    136 CCL4  -0.0812 
 841 CL     -11.5757   -13.8068     7.9344 Cl    136 CCL4  -0.0812 
 842 CL     -13.8584     0.0870    13.5946 Cl    137 CCL4  -0.0812 
 843 C      -12.2187     0.5281    13.0950 C.3   137 CCL4   0.3246 
 844 CL     -11.2825     0.8912    14.4702 Cl    137 CCL4  -0.0812 
 845 CL     -12.2951     2.0529    12.2013 Cl    137 CCL4  -0.0812 
 846 CL     -11.6103    -0.8108    12.1364 Cl    137 CCL4  -0.0812 
 847 CL     -11.9005    -8.6574     4.9791 Cl    138 CCL4  -0.0812 
 848 C      -13.5854    -8.3508     4.5355 C.3   138 CCL4   0.3246 
 849 CL     -14.6134    -9.1647     5.7247 Cl    138 CCL4  -0.0812 
 850 CL     -14.0014    -8.9485     2.8930 Cl    138 CCL4  -0.0812 
 851 CL     -14.1182    -6.6582     4.6342 Cl    138 CCL4  -0.0812 
 852 CL     -11.8064   -12.3837    17.1464 Cl    139 CCL4  -0.0812 
 853 C      -13.0648   -11.2930    16.4997 C.3   139 CCL4   0.3246 
 854 CL     -14.7710   -11.9969    17.0279 Cl    139 CCL4  -0.0812 
 855 CL     -13.0443   -11.2211    14.7282 Cl    139 CCL4  -0.0812 
 856 CL     -13.1360    -9.6875    17.2841 Cl    139 CCL4  -0.0812 
 857 CL     -15.7925    -8.1703    15.5643 Cl    140 CCL4  -0.0812 
 858 C      -16.4703    -7.8207    14.0009 C.3   140 CCL4   0.3246 
 859 CL     -17.2888    -9.3181    13.5695 Cl    140 CCL4  -0.0812 
 860 CL     -15.3360    -7.4093    12.6678 Cl    140 CCL4  -0.0812 
 861 CL     -17.7105    -6.5375    14.0287 Cl    140 CCL4  -0.0812 
 862 CL     -13.4410   -15.3409    18.0387 Cl    141 CCL4  -0.0812 
 863 C      -11.9621   -16.0245    17.3493 C.3   141 CCL4   0.3246 
 864 CL     -11.7475   -15.2618    15.7103 Cl    141 CCL4  -0.0812 
 865 CL     -12.0666   -17.7761    17.2381 Cl    141 CCL4  -0.0812 
 866 CL     -10.5503   -15.6369    18.3342 Cl    141 CCL4  -0.0812 
 867 CL     -15.2224     4.9006    16.8457 Cl    142 CCL4  -0.0812 
 868 C      -13.9521     3.6554    16.6951 C.3   142 CCL4   0.3246 
 869 CL     -12.9703     3.6503    18.1932 Cl    142 CCL4  -0.0812 
 870 CL     -13.0978     4.0409    15.1177 Cl    142 CCL4  -0.0812 
 871 CL     -14.6685     2.0195    16.6045 Cl    142 CCL4  -0.0812 
 872 CL     -16.8140    -6.4841     7.1124 Cl    143 CCL4  -0.0812 
 873 C      -17.2392    -4.6862     6.7411 C.3   143 CCL4   0.3246 
 874 CL     -16.3295    -3.5696     7.7520 Cl    143 CCL4  -0.0812 
 875 CL     -18.9737    -4.4654     7.1598 Cl    143 CCL4  -0.0812 
 876 CL     -16.8430    -4.3313     5.0760 Cl    143 CCL4  -0.0812 
 877 CL     -12.1920    -3.6753    15.0605 Cl    144 CCL4  -0.0812 
 878 C      -13.2097    -4.9374    15.8522 C.3   144 CCL4   0.3246 
 879 CL     -12.8598    -5.0323    17.6099 Cl    144 CCL4  -0.0812 
 880 CL     -12.8941    -6.5377    15.1686 Cl    144 CCL4  -0.0812 
 881 CL     -14.9736    -4.6352    15.5152 Cl    144 CCL4  -0.0812 
 882 CL     -17.9221    -1.7269    10.4427 Cl    145 CCL4  -0.0812 
 883 C      -17.4898    -2.9926    11.5854 C.3   145 CCL4   0.3246 
 884 CL     -18.7916    -2.9645    12.7277 Cl    145 CCL4  -0.0812 
 885 CL     -15.9183    -2.6301    12.4819 Cl    145 CCL4  -0.0812 
 886 CL     -17.2306    -4.5094    10.8104 Cl    145 CCL4  -0.0812 
 887 CL     -17.6208     1.6938    11.6319 Cl    146 CCL4  -0.0812 
 888 C      -17.9956     1.9007    13.3143 C.3   146 CCL4   0.3246 
 889 CL     -17.0521     3.3246    13.8283 Cl    146 CCL4  -0.0812 
 890 CL     -17.4885     0.4665    14.1897 Cl    146 CCL4  -0.0812 
 891 CL     -19.6759     2.2046    13.6919 Cl    146 CCL4  -0.0812 
 892 CL      19.4837    17.5781   -14.3457 Cl    147 CCL4  -0.0812 
 893 C       19.2494    19.2196   -13.6815 C.3   147 CCL4   0.3246 
 894 CL      17.7546    19.8465   -14.3898 Cl    147 CCL4  -0.0812 
 895 CL      20.6724    20.2761   -13.9040 Cl    147 CCL4  -0.0812 
 896 CL      19.0377    19.0088   -11.9181 Cl    147 CCL4  -0.0812 
 897 CL     -18.3784    15.6239   -17.4865 Cl    148 CCL4  -0.0812 
 898 C      -17.8771    15.6237   -15.8661 C.3   148 CCL4   0.3246 
 899 CL     -18.2136    14.1281   -15.0813 Cl    148 CCL4  -0.0812 
 900 CL     -18.4353    16.9791   -14.9799 Cl    148 CCL4  -0.0812 
 901 CL     -16.0850    15.7502   -15.8883 Cl    148 CCL4  -0.0812 
 902 CL     -20.4937     6.4543   -11.6989 Cl    149 CCL4  -0.0812 
 903 C      -21.0915     7.4722   -13.0940 C.3   149 CCL4   0.3246 
 904 CL     -22.3300     6.6934   -14.1766 Cl    149 CCL4  -0.0812 
 905 CL     -19.7139     8.0330   -14.0931 Cl    149 CCL4  -0.0812 
 906 CL     -21.8224     9.0109   -12.3535 Cl    149 CCL4  -0.0812 
 907 CL     -26.2253    17.9304   -12.4520 Cl    150 CCL4  -0.0812 
 908 C      -25.9391    16.1755   -12.3248 C.3   150 CCL4   0.3246 
 909 CL     -26.1839    15.6603   -10.6341 Cl    150 CCL4  -0.0812 
 910 CL     -24.4000    15.5761   -12.8883 Cl    150 CCL4  -0.0812 
 911 CL     -27.1931    15.3623   -13.2927 Cl    150 CCL4  -0.0812 
 912 CL     -22.4535     5.0230     2.0927 Cl    151 CCL4  -0.0812 
 913 C      -21.2710     5.4312     3.3851 C.3   151 CCL4   0.3246 
 914 CL     -20.8028     3.8804     4.0341 Cl    151 CCL4  -0.0812 
 915 CL     -22.2270     6.3079     4.6062 Cl    151 CCL4  -0.0812 
 916 CL     -19.9170     6.3289     2.8214 Cl    151 CCL4  -0.0812 
 917 CL     -19.1206    10.0825     2.5615 Cl    152 CCL4  -0.0812 
 918 C      -20.7924    10.6798     2.4346 C.3   152 CCL4   0.3246 
 919 CL     -21.1483    10.9318     0.6409 Cl    152 CCL4  -0.0812 
 920 CL     -21.1219    12.2034     3.2743 Cl    152 CCL4  -0.0812 
 921 CL     -22.0263     9.4568     2.8594 Cl    152 CCL4  -0.0812 
 922 CL     -20.7796    15.0128   -12.6193 Cl    153 CCL4  -0.0812 
 923 C      -21.2881    13.2855   -12.4032 C.3   153 CCL4   0.3246 
 924 CL     -19.8610    12.3421   -11.9390 Cl    153 CCL4  -0.0812 
 925 CL     -21.9492    12.6028   -13.8556 Cl    153 CCL4  -0.0812 
 926 CL     -22.3837    13.1701   -10.9522 Cl    153 CCL4  -0.0812 
 927 CL     -25.8852     7.1351   -16.5159 Cl    154 CCL4  -0.0812 
 928 C      -27.6666     6.6092   -16.3666 C.3   154 CCL4   0.3246 
 929 CL     -27.6820     4.9161   -16.1603 Cl    154 CCL4  -0.0812 
 930 CL     -28.6359     7.0409   -17.8543 Cl    154 CCL4  -0.0812 
 931 CL     -28.3280     7.5391   -14.9437 Cl    154 CCL4  -0.0812 
 932 CL     -21.6959     7.0462    -8.6121 Cl    155 CCL4  -0.0812 
 933 C      -22.1968     5.4103    -8.2567 C.3   155 CCL4   0.3246 
 934 CL     -20.9643     4.2798    -8.7999 Cl    155 CCL4  -0.0812 
 935 CL     -23.6342     5.0011    -9.2109 Cl    155 CCL4  -0.0812 
 936 CL     -22.5263     5.2474    -6.5703 Cl    155 CCL4  -0.0812 
 937 CL     -25.3730     7.7695   -12.6740 Cl    156 CCL4  -0.0812 
 938 C      -26.1170     8.2601   -11.1227 C.3   156 CCL4   0.3246 
 939 CL     -24.8930     8.7488   -10.0500 Cl    156 CCL4  -0.0812 
 940 CL     -26.9939     6.8466   -10.5068 Cl    156 CCL4  -0.0812 
 941 CL     -27.3075     9.6028   -11.4276 Cl    156 CCL4  -0.0812 
 942 CL      -6.7602     5.6761    23.7143 Cl    157 CCL4  -0.0812 
 943 C       -6.9288     4.9485    22.1002 C.3   157 CCL4   0.3246 
 944 CL      -8.2916     3.7841    22.0039 Cl    157 CCL4  -0.0812 
 945 CL      -5.3355     4.3161    21.6723 Cl    157 CCL4  -0.0812 
 946 CL      -7.2741     6.3353    20.9953 Cl    157 CCL4  -0.0812 
 947 CL     -23.3252    15.1942     2.9623 Cl    158 CCL4  -0.0812 
 948 C      -23.6312    15.3443     1.2570 C.3   158 CCL4   0.3246 
 949 CL     -22.5609    16.5125     0.4740 Cl    158 CCL4  -0.0812 
 950 CL     -25.3016    15.8172     0.9091 Cl    158 CCL4  -0.0812 
 951 CL     -23.4666    13.7221     0.4409 Cl    158 CCL4  -0.0812 
 952 CL     -30.4266    16.7845     3.3510 Cl    159 CCL4  -0.0812 
 953 C      -29.7244    15.7867     1.9951 C.3   159 CCL4   0.3246 
 954 CL     -28.3406    14.9507     2.6694 Cl    159 CCL4  -0.0812 
 955 CL     -29.1695    16.9638     0.8248 Cl    159 CCL4  -0.0812 
 956 CL     -30.8407    14.6188     1.3837 Cl    159 CCL4  -0.0812 
 957 CL     -19.1486    12.4859    21.5953 Cl    160 CCL4  -0.0812 
 958 C      -19.3961    10.9152    22.3611 C.3   160 CCL4   0.3246 
 959 CL     -20.7749    10.9514    23.4445 Cl    160 CCL4  -0.0812 
 960 CL     -17.9390    10.4292    23.3062 Cl    160 CCL4  -0.0812 
 961 CL     -19.6188     9.6351    21.0821 Cl    160 CCL4  -0.0812 
 962 CL     -22.3513    17.1004    21.6474 Cl    161 CCL4  -0.0812 
 963 C      -22.7374    15.6452    22.6954 C.3   161 CCL4   0.3246 
 964 CL     -24.4410    15.6706    23.3059 Cl    161 CCL4  -0.0812 
 965 CL     -21.6110    15.5007    24.0940 Cl    161 CCL4  -0.0812 
 966 CL     -22.3541    14.2418    21.6664 Cl    161 CCL4  -0.0812 
 967 CL     -29.5205    13.6258    20.8342 Cl    162 CCL4  -0.0812 
 968 C      -28.2752    14.5594    21.6702 C.3   162 CCL4   0.3246 
 969 CL     -28.4653    14.1042    23.4675 Cl    162 CCL4  -0.0812 
 970 CL     -28.6492    16.3539    21.7743 Cl    162 CCL4  -0.0812 
 971 CL     -26.7641    14.0533    21.0803 Cl    162 CCL4  -0.0812 
 972 CL     -24.5002    10.0313   -15.4362 Cl    163 CCL4  -0.0812 
 973 C      -25.5143    11.2706   -14.7123 C.3   163 CCL4   0.3246 
 974 CL     -25.1850    12.7957   -15.5559 Cl    163 CCL4  -0.0812 
 975 CL     -24.8934    11.5146   -12.9942 Cl    163 CCL4  -0.0812 
 976 CL     -27.1898    10.7441   -14.7396 Cl    163 CCL4  -0.0812 
 977 CL      -5.2724    15.4594   -11.5224 Cl    164 CCL4  -0.0812 
 978 C       -5.6017    13.8318   -12.1791 C.3   164 CCL4   0.3246 
 979 CL      -6.8526    12.9929   -11.2927 Cl    164 CCL4  -0.0812 
 980 CL      -4.2094    12.8289   -11.9454 Cl    164 CCL4  -0.0812 
 981 CL      -6.0146    14.0806   -13.9298 Cl    164 CCL4  -0.0812 
 982 CL      -4.9875     7.4391   -11.7237 Cl    165 CCL4  -0.0812 
 983 C       -6.4530     8.3149   -12.2484 C.3   165 CCL4   0.3246 
 984 CL      -5.8880     9.5587   -13.4011 Cl    165 CCL4  -0.0812 
 985 CL      -7.3453     9.0637   -10.9496 Cl    165 CCL4  -0.0812 
 986 CL      -7.5545     7.2286   -13.2336 Cl    165 CCL4  -0.0812 
 987 CL      -7.0623    14.6556    -6.7267 Cl    166 CCL4  -0.0812 
 988 C       -7.8190    13.0877    -6.2468 C.3   166 CCL4   0.3246 
 989 CL      -7.9271    12.0341    -7.7021 Cl    166 CCL4  -0.0812 
 990 CL      -9.4989    13.4301    -5.6124 Cl    166 CCL4  -0.0812 
 991 CL      -6.8727    12.1832    -4.9489 Cl    166 CCL4  -0.0812 
 992 CL      -7.4603     9.0842    23.1664 Cl    167 CCL4  -0.0812 
 993 C       -6.9162    10.5934    22.4385 C.3   167 CCL4   0.3246 
 994 CL      -5.6453    11.3740    23.4820 Cl    167 CCL4  -0.0812 
 995 CL      -8.2283    11.8359    22.3434 Cl    167 CCL4  -0.0812 
 996 CL      -6.2481    10.4824    20.8710 Cl    167 CCL4  -0.0812 
 997 CL     -25.8880     9.5028    -4.0519 Cl    168 CCL4  -0.0812 
 998 C      -25.4158     8.0368    -5.0417 C.3   168 CCL4   0.3246 
 999 CL     -26.9598     7.5202    -5.7945 Cl    168 CCL4  -0.0812 
1000 CL     -24.6382     6.7166    -4.0627 Cl    168 CCL4  -0.0812 
1001 CL     -24.3364     8.6218    -6.2989 Cl    168 CCL4  -0.0812 
1002 CL     -18.9259    14.8029    -1.9656 Cl    169 CCL4  -0.0812 
1003 C      -18.1819    14.1043    -0.6119 C.3   169 CCL4   0.3246 
1004 CL     -19.2052    14.1375     0.8377 Cl    169 CCL4  -0.0812 
1005 CL     -16.8069    15.1243    -0.1055 Cl    169 CCL4  -0.0812 
1006 CL     -17.6326    12.4749    -0.9432 Cl    169 CCL4  -0.0812 
1007 CL      -4.7469     8.9533    -5.7176 Cl    170 CCL4  -0.0812 
1008 C       -5.7095     7.5747    -6.4377 C.3   170 CCL4   0.3246 
1009 CL      -4.8665     6.9311    -7.8915 Cl    170 CCL4  -0.0812 
1010 CL      -7.2775     8.2063    -6.9165 Cl    170 CCL4  -0.0812 
1011 CL      -6.0308     6.1914    -5.2760 Cl    170 CCL4  -0.0812 
1012 CL     -30.0379     6.6777    -1.7687 Cl    171 CCL4  -0.0812 
1013 C      -29.2708     5.0981    -2.1927 C.3   171 CCL4   0.3246 
1014 CL     -30.6786     4.0517    -2.5395 Cl    171 CCL4  -0.0812 
1015 CL     -28.4405     4.6139    -0.7118 Cl    171 CCL4  -0.0812 
1016 CL     -28.1110     5.0321    -3.5136 Cl    171 CCL4  -0.0812 
1017 CL     -20.1287    13.0645    -7.8923 Cl    172 CCL4  -0.0812 
1018 C      -19.2278    14.1373    -6.8186 C.3   172 CCL4   0.3246 
1019 CL     -18.0679    15.2246    -7.6271 Cl    172 CCL4  -0.0812 
1020 CL     -18.2558    13.0526    -5.5706 Cl    172 CCL4  -0.0812 
1021 CL     -20.3338    15.1028    -5.8389 Cl    172 CCL4  -0.0812 
1022 CL     -21.2060    16.3842    -9.0739 Cl    173 CCL4  -0.0812 
1023 C      -22.7800    16.6618    -8.2044 C.3   173 CCL4   0.3246 
1024 CL     -22.5068    17.6098    -6.7721 Cl    173 CCL4  -0.0812 
1025 CL     -23.4813    15.0446    -7.7589 Cl    173 CCL4  -0.0812 
1026 CL     -23.8099    17.5438    -9.2562 Cl    173 CCL4  -0.0812 
1027 CL     -16.1974     8.5382    -9.5109 Cl    174 CCL4  -0.0812 
1028 C      -17.7357     8.9626    -8.9224 C.3   174 CCL4   0.3246 
1029 CL     -18.8176     9.2814   -10.3649 Cl    174 CCL4  -0.0812 
1030 CL     -17.6460    10.4125    -7.9847 Cl    174 CCL4  -0.0812 
1031 CL     -18.4705     7.6796    -7.9950 Cl    174 CCL4  -0.0812 
1032 CL     -19.3805     9.8877    -3.1007 Cl    175 CCL4  -0.0812 
1033 C      -20.4109     8.9062    -4.0627 C.3   175 CCL4   0.3246 
1034 CL     -20.8895     9.7774    -5.5348 Cl    175 CCL4  -0.0812 
1035 CL     -21.8213     8.5495    -3.0929 Cl    175 CCL4  -0.0812 
1036 CL     -19.6116     7.4232    -4.4765 Cl    175 CCL4  -0.0812 
1037 CL     -14.8213    17.4769    -5.2418 Cl    176 CCL4  -0.0812 
1038 C      -14.2240    16.2745    -4.1352 C.3   176 CCL4   0.3246 
1039 CL     -14.9820    14.7049    -4.5394 Cl    176 CCL4  -0.0812 
1040 CL     -14.6857    16.6817    -2.4326 Cl    176 CCL4  -0.0812 
1041 CL     -12.4603    16.0648    -4.1483 Cl    176 CCL4  -0.0812 
1042 CL     -25.1125    12.8100    -2.3272 Cl    177 CCL4  -0.0812 
1043 C      -23.6275    13.0974    -3.2704 C.3   177 CCL4   0.3246 
1044 CL     -23.9985    12.7632    -4.9558 Cl    177 CCL4  -0.0812 
1045 CL     -22.4250    12.0305    -2.6207 Cl    177 CCL4  -0.0812 
1046 CL     -23.2014    14.8646    -3.1644 Cl    177 CCL4  -0.0812 
1047 CL      -8.7314    17.3217    -2.8361 Cl    178 CCL4  -0.0812 
1048 C       -7.3822    16.5160    -1.9361 C.3   178 CCL4   0.3246 
1049 CL      -5.7844    16.9064    -2.7587 Cl    178 CCL4  -0.0812 
1050 CL      -7.6333    14.7575    -1.9988 Cl    178 CCL4  -0.0812 
1051 CL      -7.3759    17.2019    -0.2712 Cl    178 CCL4  -0.0812 
1052 CL     -26.8106    12.5326    -9.0523 Cl    179 CCL4  -0.0812 
1053 C      -27.9057    11.5703    -8.1173 C.3   179 CCL4   0.3246 
1054 CL     -29.5922    11.8629    -8.5828 Cl    179 CCL4  -0.0812 
1055 CL     -27.8291    12.1312    -6.4825 Cl    179 CCL4  -0.0812 
1056 CL     -27.4881     9.8575    -8.2276 Cl    179 CCL4  -0.0812 
1057 CL     -10.2962     6.5322   -10.4813 Cl    180 CCL4  -0.0812 
1058 C       -9.2939     5.0262   -10.2823 C.3   180 CCL4   0.3246 
1059 CL      -9.9513     4.2783    -8.7935 Cl    180 CCL4  -0.0812 
1060 CL      -7.5728     5.4789    -9.8208 Cl    180 CCL4  -0.0812 
1061 CL      -9.3632     4.0444   -11.7882 Cl    180 CCL4  -0.0812 
1062 CL     -23.6173     7.1511    -0.7140 Cl    181 CCL4  -0.0812 
1063 C      -24.8992     8.2397    -0.0852 C.3   181 CCL4   0.3246 
1064 CL     -25.1262     7.7057     1.6250 Cl    181 CCL4  -0.0812 
1065 CL     -26.3470     8.1152    -1.0544 Cl    181 CCL4  -0.0812 
1066 CL     -24.3745     9.9428    -0.1110 Cl    181 CCL4  -0.0812 
1067 CL     -31.4001     8.5887     2.7541 Cl    182 CCL4  -0.0812 
1068 C      -29.7542     9.0409     2.8797 C.3   182 CCL4   0.3246 
1069 CL     -29.4502    10.7922     3.1019 Cl    182 CCL4  -0.0812 
1070 CL     -28.9091     8.5061     1.4037 Cl    182 CCL4  -0.0812 
1071 CL     -28.9988     8.1317     4.1270 Cl    182 CCL4  -0.0812 
1072 CL     -21.1633    20.7465   -14.6401 Cl    183 CCL4  -0.0812 
1073 C      -21.8536    19.6163   -13.4437 C.3   183 CCL4   0.3246 
1074 CL     -22.9897    18.5210   -14.4426 Cl    183 CCL4  -0.0812 
1075 CL     -22.8064    20.6651   -12.2927 Cl    183 CCL4  -0.0812 
1076 CL     -20.6848    18.5473   -12.6794 Cl    183 CCL4  -0.0812 
1077 CL      -5.7372    20.3807    -1.0527 Cl    184 CCL4  -0.0812 
1078 C       -5.8193    21.1423     0.5014 C.3   184 CCL4   0.3246 
1079 CL      -6.6390    20.0798     1.7043 Cl    184 CCL4  -0.0812 
1080 CL      -6.7030    22.6246     0.3654 Cl    184 CCL4  -0.0812 
1081 CL      -4.1547    21.4297     1.0972 Cl    184 CCL4  -0.0812 
1082 CL     -26.0808    18.9371   -16.0909 Cl    185 CCL4  -0.0812 
1083 C      -25.8201    20.6496   -16.1859 C.3   185 CCL4   0.3246 
1084 CL     -26.9421    21.5044   -17.1501 Cl    185 CCL4  -0.0812 
1085 CL     -24.0966    20.8472   -16.9572 Cl    185 CCL4  -0.0812 
1086 CL     -25.5812    21.3315   -14.5274 Cl    185 CCL4  -0.0812 
1087 CL      -7.4925    17.2372    -8.8116 Cl    186 CCL4  -0.0812 
1088 C       -8.4547    18.0282    -7.5501 C.3   186 CCL4   0.3246 
1089 CL      -7.4232    18.6437    -6.2478 Cl    186 CCL4  -0.0812 
1090 CL      -9.6701    17.0464    -6.8124 Cl    186 CCL4  -0.0812 
1091 CL      -9.1644    19.6290    -8.3072 Cl    186 CCL4  -0.0812 
1092 CL     -20.2749    21.5858    -6.7788 Cl    187 CCL4  -0.0812 
1093 C      -19.6173    20.3726    -7.9038 C.3   187 CCL4   0.3246 
1094 CL     -20.7597    19.9605    -9.1533 Cl    187 CCL4  -0.0812 
1095 CL     -19.1229    18.9575    -7.0704 Cl    187 CCL4  -0.0812 
1096 CL     -18.2776    21.0831    -8.7832 Cl    187 CCL4  -0.0812 
1097 CL     -24.7560    18.4692    -1.6976 Cl    188 CCL4  -0.0812 
1098 C      -26.2800    18.0596    -2.4769 C.3   188 CCL4   0.3246 
1099 CL     -27.6734    18.8043    -1.7544 Cl    188 CCL4  -0.0812 
1100 CL     -26.4385    16.2781    -2.5016 Cl    188 CCL4  -0.0812 
1101 CL     -26.1971    18.5595    -4.1374 Cl    188 CCL4  -0.0812 
1102 CL     -18.6738    18.2712    -1.1547 Cl    189 CCL4  -0.0812 
1103 C      -19.3076    18.4038    -2.8135 C.3   189 CCL4   0.3246 
1104 CL     -18.2982    17.5904    -4.0001 Cl    189 CCL4  -0.0812 
1105 CL     -19.5185    20.2009    -3.2684 Cl    189 CCL4  -0.0812 
1106 CL     -20.8688    17.6532    -2.9139 Cl    189 CCL4  -0.0812 
1107 CL     -28.7994    17.2944    -5.7058 Cl    190 CCL4  -0.0812 
1108 C      -27.7156    16.6963    -6.9748 C.3   190 CCL4   0.3246 
1109 CL     -28.6619    15.3647    -7.6789 Cl    190 CCL4  -0.0812 
1110 CL     -26.3835    15.8443    -6.1615 Cl    190 CCL4  -0.0812 
1111 CL     -27.2078    17.9476    -8.1426 Cl    190 CCL4  -0.0812 
1112 CL     -15.4773    20.7735    -1.5762 Cl    191 CCL4  -0.0812 
1113 C      -15.3661    20.5906     0.1624 C.3   191 CCL4   0.3246 
1114 CL     -13.6850    21.2708     0.5953 Cl    191 CCL4  -0.0812 
1115 CL     -15.4737    18.8347     0.5545 Cl    191 CCL4  -0.0812 
1116 CL     -16.5601    21.5262     1.0421 Cl    191 CCL4  -0.0812 
1117 CL     -13.2041    18.8884   -16.1463 Cl    192 CCL4  -0.0812 
1118 C      -12.6731    20.2358   -15.1660 C.3   192 CCL4   0.3246 
1119 CL     -12.9201    21.8028   -16.0638 Cl    192 CCL4  -0.0812 
1120 CL     -10.9209    20.0050   -14.9076 Cl    192 CCL4  -0.0812 
1121 CL     -13.6074    20.2877   -13.5928 Cl    192 CCL4  -0.0812 
1122 CL     -15.0380    13.0817   -13.2519 Cl    193 CCL4  -0.0812 
1123 C      -15.5881    11.7097   -12.2942 C.3   193 CCL4   0.3246 
1124 CL     -16.5746    12.2615   -10.9289 Cl    193 CCL4  -0.0812 
1125 CL     -14.1583    10.9099   -11.6926 Cl    193 CCL4  -0.0812 
1126 CL     -16.6249    10.6409   -13.3614 Cl    193 CCL4  -0.0812 
1127 CL      -9.9452    14.1490     2.0693 Cl    194 CCL4  -0.0812 
1128 C       -9.1471    12.8496     2.9852 C.3   194 CCL4   0.3246 
1129 CL     -10.5228    12.0137     3.7084 Cl    194 CCL4  -0.0812 
1130 CL      -8.1276    13.6313     4.1341 Cl    194 CCL4  -0.0812 
1131 CL      -8.3217    11.7846     1.9381 Cl    194 CCL4  -0.0812 
1132 CL     -10.1968    15.1716    22.9457 Cl    195 CCL4  -0.0812 
1133 C       -8.7250    16.1296    22.8414 C.3   195 CCL4   0.3246 
1134 CL      -7.2445    15.1139    22.9761 Cl    195 CCL4  -0.0812 
1135 CL      -8.6391    17.4163    24.0252 Cl    195 CCL4  -0.0812 
1136 CL      -8.6044    16.9600    21.2411 Cl    195 CCL4  -0.0812 
1137 CL     -11.1976     9.8544   -13.2997 Cl    196 CCL4  -0.0812 
1138 C      -10.4744    11.4371   -13.2619 C.3   196 CCL4   0.3246 
1139 CL     -10.1420    11.8036   -11.4742 Cl    196 CCL4  -0.0812 
1140 CL     -11.6120    12.7023   -13.7865 Cl    196 CCL4  -0.0812 
1141 CL      -8.9902    11.6318   -14.1910 Cl    196 CCL4  -0.0812 
1142 CL      -9.5714    18.6379   -11.9879 Cl    197 CCL4  -0.0812 
1143 C      -10.1096    16.8770   -12.0726 C.3   197 CCL4   0.3246 
1144 CL     -11.5624    16.8787   -13.1415 Cl    197 CCL4  -0.0812 
1145 CL     -10.4137    16.2811   -10.4490 Cl    197 CCL4  -0.0812 
1146 CL      -8.7505    15.8885   -12.6757 Cl    197 CCL4  -0.0812 
1147 CL     -14.2387    12.5214   -17.0778 Cl    198 CCL4  -0.0812 
1148 C      -13.3711    11.0367   -17.0227 C.3   198 CCL4   0.3246 
1149 CL     -13.8901     9.7986   -18.2353 Cl    198 CCL4  -0.0812 
1150 CL     -13.7261    10.2309   -15.3386 Cl    198 CCL4  -0.0812 
1151 CL     -11.5757    11.1932   -17.0656 Cl    198 CCL4  -0.0812 
1152 CL     -15.7226     7.4350   -15.0494 Cl    199 CCL4  -0.0812 
1153 C      -15.3484     6.6167   -13.5344 C.3   199 CCL4   0.3246 
1154 CL     -14.0523     7.4338   -12.6826 Cl    199 CCL4  -0.0812 
1155 CL     -14.8086     4.9257   -13.8299 Cl    199 CCL4  -0.0812 
1156 CL     -16.8328     6.4121   -12.4522 Cl    199 CCL4  -0.0812 
1157 CL     -11.4964     4.2819   -16.7779 Cl    200 CCL4  -0.0812 
1158 C      -11.4125     5.7708   -15.8400 C.3   200 CCL4   0.3246 
1159 CL     -11.4103     5.5712   -14.1390 Cl    200 CCL4  -0.0812 
1160 CL     -12.6976     6.8835   -16.3130 Cl    200 CCL4  -0.0812 
1161 CL      -9.9928     6.8339   -16.3564 Cl    200 CCL4  -0.0812 
1162 CL     -11.8064    12.6163    -7.8536 Cl    201 CCL4  -0.0812 
1163 C      -13.0648    13.7070    -8.5003 C.3   201 CCL4   0.3246 
1164 CL     -14.7710    13.0031    -7.9721 Cl    201 CCL4  -0.0812 
1165 CL     -13.0443    13.7789   -10.2718 Cl    201 CCL4  -0.0812 
1166 CL     -13.1360    15.3125    -7.7159 Cl    201 CCL4  -0.0812 
1167 CL     -15.7925    16.8297    -9.4357 Cl    202 CCL4  -0.0812 
1168 C      -16.4703    17.1793   -10.9991 C.3   202 CCL4   0.3246 
1169 CL     -17.2888    15.6819   -11.4305 Cl    202 CCL4  -0.0812 
1170 CL     -15.3360    17.5907   -12.3322 Cl    202 CCL4  -0.0812 
1171 CL     -17.7105    18.4625   -10.9713 Cl    202 CCL4  -0.0812 
1172 CL     -13.4410     9.6591    -6.9613 Cl    203 CCL4  -0.0812 
1173 C      -11.9621     8.9755    -7.6507 C.3   203 CCL4   0.3246 
1174 CL     -11.7475     9.7382    -9.2897 Cl    203 CCL4  -0.0812 
1175 CL     -12.0666     7.2239    -7.7619 Cl    203 CCL4  -0.0812 
1176 CL     -10.5503     9.3631    -6.6658 Cl    203 CCL4  -0.0812 
1177 CL     -10.9461     4.0057    -3.5491 Cl    204 CCL4  -0.0812 
1178 C       -9.4628     4.8145    -4.1444 C.3   204 CCL4   0.3246 
1179 CL      -9.9915     6.0313    -5.3431 Cl    204 CCL4  -0.0812 
1180 CL      -8.3603     3.6173    -4.8151 Cl    204 CCL4  -0.0812 
1181 CL      -8.6405     5.4830    -2.7464 Cl    204 CCL4  -0.0812 
1182 CL     -28.4609    11.2141    -2.7853 Cl    205 CCL4  -0.0812 
1183 C      -28.8890    12.2156    -1.4113 C.3   205 CCL4   0.3246 
1184 CL     -29.2609    13.8935    -1.8433 Cl    205 CCL4  -0.0812 
1185 CL     -30.4545    11.6452    -0.7066 Cl    205 CCL4  -0.0812 
1186 CL     -27.6462    12.1038    -0.1325 Cl    205 CCL4  -0.0812 
1187 CL     -11.9514    18.5325     1.8655 Cl    206 CCL4  -0.0812 
1188 C      -10.3539    18.1640     1.1870 C.3   206 CCL4   0.3246 
1189 CL      -9.7060    19.6617     0.3319 Cl    206 CCL4  -0.0812 
1190 CL     -10.5416    16.8434     0.0561 Cl    206 CCL4  -0.0812 
1191 CL      -9.2014    17.6719     2.5365 Cl    206 CCL4  -0.0812 
1192 CL     -11.6112    11.4985     0.2732 Cl    207 CCL4  -0.0812 
1193 C      -12.6412    12.2739    -0.9819 C.3   207 CCL4   0.3246 
1194 CL     -13.6914    11.0433    -1.6816 Cl    207 CCL4  -0.0812 
1195 CL     -11.6866    13.0766    -2.2306 Cl    207 CCL4  -0.0812 
1196 CL     -13.6719    13.4706    -0.0281 Cl    207 CCL4  -0.0812 
1197 CL     -16.2120     7.6714    -2.9912 Cl    208 CCL4  -0.0812 
1198 C      -15.0976     7.0378    -4.2935 C.3   208 CCL4   0.3246 
1199 CL     -14.8910     5.3053    -4.0896 Cl    208 CCL4  -0.0812 
1200 CL     -13.6523     7.9405    -3.9311 Cl    208 CCL4  -0.0812 
1201 CL     -15.7536     7.5375    -5.8562 Cl    208 CCL4  -0.0812 
1202 CL      -8.9143    11.0127    -1.6260 Cl    209 CCL4  -0.0812 
1203 C       -8.9198     9.3656    -2.0491 C.3   209 CCL4   0.3246 
1204 CL      -8.4557     8.4434    -0.5507 Cl    209 CCL4  -0.0812 
1205 CL      -7.7658     8.9925    -3.2572 Cl    209 CCL4  -0.0812 
1206 CL     -10.5202     8.8709    -2.4624 Cl    209 CCL4  -0.0812 
1207 CL     -10.0688    20.2408    -4.2744 Cl    210 CCL4  -0.0812 
1208 C      -11.4158    20.5830    -3.2427 C.3   210 CCL4   0.3246 
1209 CL     -12.7464    21.2942    -4.1692 Cl    210 CCL4  -0.0812 
1210 CL     -10.9102    22.0181    -2.3081 Cl    210 CCL4  -0.0812 
1211 CL     -12.1056    19.2429    -2.2100 Cl    210 CCL4  -0.0812 
1212 CL     -16.8140    18.5159    22.1124 Cl    211 CCL4  -0.0812 
1213 C      -17.2392    20.3138    21.7411 C.3   211 CCL4   0.3246 
1214 CL     -16.3295    21.4304    22.7520 Cl    211 CCL4  -0.0812 
1215 CL     -18.9737    20.5346    22.1598 Cl    211 CCL4  -0.0812 
1216 CL     -16.8430    20.6687    20.0760 Cl    211 CCL4  -0.0812 
1217 CL     -12.1920    21.3247    -9.9395 Cl    212 CCL4  -0.0812 
1218 C      -13.2097    20.0626    -9.1478 C.3   212 CCL4   0.3246 
1219 CL     -12.8598    19.9677    -7.3901 Cl    212 CCL4  -0.0812 
1220 CL     -12.8941    18.4623    -9.8314 Cl    212 CCL4  -0.0812 
1221 CL     -14.9736    20.3648    -9.4848 Cl    212 CCL4  -0.0812 
1222 CL      19.4837    17.5781    10.6543 Cl    213 CCL4  -0.0812 
1223 C       19.2494    19.2196    11.3185 C.3   213 CCL4   0.3246 
1224 CL      17.7546    19.8465    10.6102 Cl    213 CCL4  -0.0812 
1225 CL      20.6724    20.2761    11.0960 Cl    213 CCL4  -0.0812 
1226 CL      19.0377    19.0088    13.0819 Cl    213 CCL4  -0.0812 
1227 CL     -18.3784    15.6239     7.5135 Cl    214 CCL4  -0.0812 
1228 C      -17.8771    15.6237     9.1339 C.3   214 CCL4   0.3246 
1229 CL     -18.2136    14.1281     9.9187 Cl    214 CCL4  -0.0812 
1230 CL     -18.4353    16.9791    10.0201 Cl    214 CCL4  -0.0812 
1231 CL     -16.0850    15.7502     9.1117 Cl    214 CCL4  -0.0812 
1232 CL     -20.4937     6.4543    13.3011 Cl    215 CCL4  -0.0812 
1233 C      -21.0915     7.4722    11.9060 C.3   215 CCL4   0.3246 
1234 CL     -22.3300     6.6934    10.8234 Cl    215 CCL4  -0.0812 
1235 CL     -19.7139     8.0330    10.9069 Cl    215 CCL4  -0.0812 
1236 CL     -21.8224     9.0109    12.6465 Cl    215 CCL4  -0.0812 
1237 CL     -26.2253    17.9304    12.5480 Cl    216 CCL4  -0.0812 
1238 C      -25.9391    16.1755    12.6752 C.3   216 CCL4   0.3246 
1239 CL     -26.1839    15.6603    14.3659 Cl    216 CCL4  -0.0812 
1240 CL     -24.4000    15.5761    12.1117 Cl    216 CCL4  -0.0812 
1241 CL     -27.1931    15.3623    11.7073 Cl    216 CCL4  -0.0812 
1242 CL     -20.7796    15.0128    12.3807 Cl    217 CCL4  -0.0812 
1243 C      -21.2881    13.2855    12.5968 C.3   217 CCL4   0.3246 
1244 CL     -19.8610    12.3421    13.0610 Cl    217 CCL4  -0.0812 
1245 CL     -21.9492    12.6028    11.1444 Cl    217 CCL4  -0.0812 
1246 CL     -22.3837    13.1701    14.0478 Cl    217 CCL4  -0.0812 
1247 CL     -25.8852     7.1351     8.4841 Cl    218 CCL4  -0.0812 
1248 C      -27.6666     6.6092     8.6334 C.3   218 CCL4   0.3246 
1249 CL     -27.6820     4.9161     8.8397 Cl    218 CCL4  -0.0812 
1250 CL     -28.6359     7.0409     7.1457 Cl    218 CCL4  -0.0812 
1251 CL     -28.3280     7.5391    10.0563 Cl    218 CCL4  -0.0812 
1252 CL     -21.6959     7.0462    16.3879 Cl    219 CCL4  -0.0812 
1253 C      -22.1968     5.4103    16.7433 C.3   219 CCL4   0.3246 
1254 CL     -20.9643     4.2798    16.2001 Cl    219 CCL4  -0.0812 
1255 CL     -23.6342     5.0011    15.7891 Cl    219 CCL4  -0.0812 
1256 CL     -22.5263     5.2474    18.4297 Cl    219 CCL4  -0.0812 
1257 CL     -25.3730     7.7695    12.3260 Cl    220 CCL4  -0.0812 
1258 C      -26.1170     8.2601    13.8773 C.3   220 CCL4   0.3246 
1259 CL     -24.8930     8.7488    14.9500 Cl    220 CCL4  -0.0812 
1260 CL     -26.9939     6.8466    14.4932 Cl    220 CCL4  -0.0812 
1261 CL     -27.3075     9.6028    13.5724 Cl    220 CCL4  -0.0812 
1262 CL     -16.3227    13.2108     2.8397 Cl    221 CCL4  -0.0812 
1263 C      -15.3219    11.8847     3.5935 C.3   221 CCL4   0.3246 
1264 CL     -14.9048    10.8060     2.2497 Cl    221 CCL4  -0.0812 
1265 CL     -16.2582    11.0880     4.8310 Cl    221 CCL4  -0.0812 
1266 CL     -13.8943    12.6137     4.3368 Cl    221 CCL4  -0.0812 
1267 CL     -19.1486    12.4859     6.5953 Cl    222 CCL4  -0.0812 
1268 C      -19.3961    10.9152     7.3611 C.3   222 CCL4   0.3246 
1269 CL     -20.7749    10.9514     8.4445 Cl    222 CCL4  -0.0812 
1270 CL     -17.9390    10.4292     8.3062 Cl    222 CCL4  -0.0812 
1271 CL     -19.6188     9.6351     6.0821 Cl    222 CCL4  -0.0812 
1272 CL     -25.9499    10.7111     3.4141 Cl    223 CCL4  -0.0812 
1273 C      -25.4783    10.1178     5.0246 C.3   223 CCL4   0.3246 
1274 CL     -26.6584    10.7004     6.1837 Cl    223 CCL4  -0.0812 
1275 CL     -23.9412    10.8611     5.4769 Cl    223 CCL4  -0.0812 
1276 CL     -25.2733     8.3656     4.9502 Cl    223 CCL4  -0.0812 
1277 CL     -22.3513    17.1004     6.6474 Cl    224 CCL4  -0.0812 
1278 C      -22.7374    15.6452     7.6954 C.3   224 CCL4   0.3246 
1279 CL     -24.4410    15.6706     8.3059 Cl    224 CCL4  -0.0812 
1280 CL     -21.6110    15.5007     9.0940 Cl    224 CCL4  -0.0812 
1281 CL     -22.3541    14.2418     6.6664 Cl    224 CCL4  -0.0812 
1282 CL     -29.5205    13.6258     5.8342 Cl    225 CCL4  -0.0812 
1283 C      -28.2752    14.5594     6.6702 C.3   225 CCL4   0.3246 
1284 CL     -28.4653    14.1042     8.4675 Cl    225 CCL4  -0.0812 
1285 CL     -28.6492    16.3539     6.7743 Cl    225 CCL4  -0.0812 
1286 CL     -26.7641    14.0533     6.0803 Cl    225 CCL4  -0.0812 
1287 CL     -24.5002    10.0313     9.5638 Cl    226 CCL4  -0.0812 
1288 C      -25.5143    11.2706    10.2877 C.3   226 CCL4   0.3246 
1289 CL     -25.1850    12.7957     9.4441 Cl    226 CCL4  -0.0812 
1290 CL     -24.8934    11.5146    12.0058 Cl    226 CCL4  -0.0812 
1291 CL     -27.1898    10.7441    10.2604 Cl    226 CCL4  -0.0812 
1292 CL      -5.2724    15.4594    13.4776 Cl    227 CCL4  -0.0812 
1293 C       -5.6017    13.8318    12.8209 C.3   227 CCL4   0.3246 
1294 CL      -6.8526    12.9929    13.7073 Cl    227 CCL4  -0.0812 
1295 CL      -4.2094    12.8289    13.0546 Cl    227 CCL4  -0.0812 
1296 CL      -6.0146    14.0806    11.0702 Cl    227 CCL4  -0.0812 
1297 CL      -4.9875     7.4391    13.2763 Cl    228 CCL4  -0.0812 
1298 C       -6.4530     8.3149    12.7516 C.3   228 CCL4   0.3246 
1299 CL      -5.8880     9.5587    11.5989 Cl    228 CCL4  -0.0812 
1300 CL      -7.3453     9.0637    14.0504 Cl    228 CCL4  -0.0812 
1301 CL      -7.5545     7.2286    11.7664 Cl    228 CCL4  -0.0812 
1302 CL      -7.4603     9.0842     8.1664 Cl    229 CCL4  -0.0812 
1303 C       -6.9162    10.5934     7.4385 C.3   229 CCL4   0.3246 
1304 CL      -5.6453    11.3740     8.4820 Cl    229 CCL4  -0.0812 
1305 CL      -8.2283    11.8359     7.3434 Cl    229 CCL4  -0.0812 
1306 CL      -6.2481    10.4824     5.8710 Cl    229 CCL4  -0.0812 
1307 CL     -25.8880     9.5028    20.9481 Cl    230 CCL4  -0.0812 
1308 C      -25.4158     8.0368    19.9583 C.3   230 CCL4   0.3246 
1309 CL     -26.9598     7.5202    19.2055 Cl    230 CCL4  -0.0812 
1310 CL     -24.6382     6.7166    20.9373 Cl    230 CCL4  -0.0812 
1311 CL     -24.3364     8.6218    18.7011 Cl    230 CCL4  -0.0812 
1312 CL     -20.1287    13.0645    17.1077 Cl    231 CCL4  -0.0812 
1313 C      -19.2278    14.1373    18.1814 C.3   231 CCL4   0.3246 
1314 CL     -18.0679    15.2246    17.3729 Cl    231 CCL4  -0.0812 
1315 CL     -18.2558    13.0526    19.4294 Cl    231 CCL4  -0.0812 
1316 CL     -20.3338    15.1028    19.1611 Cl    231 CCL4  -0.0812 
1317 CL     -21.2060    16.3842    15.9261 Cl    232 CCL4  -0.0812 
1318 C      -22.7800    16.6618    16.7956 C.3   232 CCL4   0.3246 
1319 CL     -22.5068    17.6098    18.2279 Cl    232 CCL4  -0.0812 
1320 CL     -23.4813    15.0446    17.2411 Cl    232 CCL4  -0.0812 
1321 CL     -23.8099    17.5438    15.7438 Cl    232 CCL4  -0.0812 
1322 CL     -16.1974     8.5382    15.4891 Cl    233 CCL4  -0.0812 
1323 C      -17.7357     8.9626    16.0776 C.3   233 CCL4   0.3246 
1324 CL     -18.8176     9.2814    14.6351 Cl    233 CCL4  -0.0812 
1325 CL     -17.6460    10.4125    17.0153 Cl    233 CCL4  -0.0812 
1326 CL     -18.4705     7.6796    17.0050 Cl    233 CCL4  -0.0812 
1327 CL     -26.8106    12.5326    15.9477 Cl    234 CCL4  -0.0812 
1328 C      -27.9057    11.5703    16.8827 C.3   234 CCL4   0.3246 
1329 CL     -29.5922    11.8629    16.4172 Cl    234 CCL4  -0.0812 
1330 CL     -27.8291    12.1312    18.5175 Cl    234 CCL4  -0.0812 
1331 CL     -27.4881     9.8575    16.7724 Cl    234 CCL4  -0.0812 
1332 CL     -10.2962     6.5322    14.5187 Cl    235 CCL4  -0.0812 
1333 C       -9.2939     5.0262    14.7177 C.3   235 CCL4   0.3246 
1334 CL      -9.9513     4.2783    16.2065 Cl    235 CCL4  -0.0812 
1335 CL      -7.5728     5.4789    15.1792 Cl    235 CCL4  -0.0812 
1336 CL      -9.3632     4.0444    13.2118 Cl    235 CCL4  -0.0812 
1337 CL     -21.1633    20.7465    10.3599 Cl    236 CCL4  -0.0812 
1338 C      -21.8536    19.6163    11.5563 C.3   236 CCL4   0.3246 
1339 CL     -22.9897    18.5210    10.5574 Cl    236 CCL4  -0.0812 
1340 CL     -22.8064    20.6651    12.7073 Cl    236 CCL4  -0.0812 
1341 CL     -20.6848    18.5473    12.3206 Cl    236 CCL4  -0.0812 
1342 CL     -25.8784    16.9795     4.6658 Cl    237 CCL4  -0.0812 
1343 C      -25.3662    18.4314     3.9040 C.3   237 CCL4   0.3246 
1344 CL     -25.5665    19.7749     4.9856 Cl    237 CCL4  -0.0812 
1345 CL     -26.2116    18.8413     2.4298 Cl    237 CCL4  -0.0812 
1346 CL     -23.5797    18.3964     3.5885 Cl    237 CCL4  -0.0812 
1347 CL     -26.0808    18.9371     8.9091 Cl    238 CCL4  -0.0812 
1348 C      -25.8201    20.6496     8.8141 C.3   238 CCL4   0.3246 
1349 CL     -26.9421    21.5044     7.8499 Cl    238 CCL4  -0.0812 
1350 CL     -24.0966    20.8472     8.0428 Cl    238 CCL4  -0.0812 
1351 CL     -25.5812    21.3315    10.4726 Cl    238 CCL4  -0.0812 
1352 CL      19.5762    19.6692     7.3409 Cl    239 CCL4  -0.0812 
1353 C       19.2449    20.4376     5.7677 C.3   239 CCL4   0.3246 
1354 CL      17.6058    20.2369     5.2356 Cl    239 CCL4  -0.0812 
1355 CL      20.2461    19.7735     4.5146 Cl    239 CCL4  -0.0812 
1356 CL      19.4700    22.1649     5.9196 Cl    239 CCL4  -0.0812 
1357 CL      -7.4925    17.2372    16.1884 Cl    240 CCL4  -0.0812 
1358 C       -8.4547    18.0282    17.4499 C.3   240 CCL4   0.3246 
1359 CL      -7.4232    18.6437    18.7522 Cl    240 CCL4  -0.0812 
1360 CL      -9.6701    17.0464    18.1876 Cl    240 CCL4  -0.0812 
1361 CL      -9.1644    19.6290    16.6928 Cl    240 CCL4  -0.0812 
1362 CL     -17.3689    16.9070     3.9736 Cl    241 CCL4  -0.0812 
1363 C      -19.0705    16.9651     3.6882 C.3   241 CCL4   0.3246 
1364 CL     -19.7764    15.5019     4.1471 Cl    241 CCL4  -0.0812 
1365 CL     -19.4062    17.4156     1.9483 Cl    241 CCL4  -0.0812 
1366 CL     -19.7252    18.3334     4.7050 Cl    241 CCL4  -0.0812 
1367 CL     -20.2749    21.5858    18.2212 Cl    242 CCL4  -0.0812 
1368 C      -19.6173    20.3726    17.0962 C.3   242 CCL4   0.3246 
1369 CL     -20.7597    19.9605    15.8467 Cl    242 CCL4  -0.0812 
1370 CL     -19.1229    18.9575    17.9296 Cl    242 CCL4  -0.0812 
1371 CL     -18.2776    21.0831    16.2168 Cl    242 CCL4  -0.0812 
1372 CL     -28.7994    17.2944    19.2942 Cl    243 CCL4  -0.0812 
1373 C      -27.7156    16.6963    18.0252 C.3   243 CCL4   0.3246 
1374 CL     -28.6619    15.3647    17.3211 Cl    243 CCL4  -0.0812 
1375 CL     -26.3835    15.8443    18.8385 Cl    243 CCL4  -0.0812 
1376 CL     -27.2078    17.9476    16.8574 Cl    243 CCL4  -0.0812 
1377 CL     -13.2041    18.8884     8.8537 Cl    244 CCL4  -0.0812 
1378 C      -12.6731    20.2358     9.8340 C.3   244 CCL4   0.3246 
1379 CL     -12.9201    21.8028     8.9362 Cl    244 CCL4  -0.0812 
1380 CL     -10.9209    20.0050    10.0924 Cl    244 CCL4  -0.0812 
1381 CL     -13.6074    20.2877    11.4072 Cl    244 CCL4  -0.0812 
1382 CL     -15.0380    13.0817    11.7481 Cl    245 CCL4  -0.0812 
1383 C      -15.5881    11.7097    12.7058 C.3   245 CCL4   0.3246 
1384 CL     -16.5746    12.2615    14.0711 Cl    245 CCL4  -0.0812 
1385 CL     -14.1583    10.9099    13.3074 Cl    245 CCL4  -0.0812 
1386 CL     -16.6249    10.6409    11.6386 Cl    245 CCL4  -0.0812 
1387 CL     -10.1968    15.1716     7.9457 Cl    246 CCL4  -0.0812 
1388 C       -8.7250    16.1296     7.8414 C.3   246 CCL4   0.3246 
1389 CL      -7.2445    15.1139     7.9761 Cl    246 CCL4  -0.0812 
1390 CL      -8.6391    17.4163     9.0252 Cl    246 CCL4  -0.0812 
1391 CL      -8.6044    16.9600     6.2411 Cl    246 CCL4  -0.0812 
1392 CL     -11.1976     9.8544    11.7003 Cl    247 CCL4  -0.0812 
1393 C      -10.4744    11.4371    11.7381 C.3   247 CCL4   0.3246 
1394 CL     -10.1420    11.8036    13.5258 Cl    247 CCL4  -0.0812 
1395 CL     -11.6120    12.7023    11.2135 Cl    247 CCL4  -0.0812 
1396 CL      -8.9902    11.6318    10.8090 Cl    247 CCL4  -0.0812 
1397 CL      -9.5714    18.6379    13.0121 Cl    248 CCL4  -0.0812 
1398 C      -10.1096    16.8770    12.9274 C.3   248 CCL4   0.3246 
1399 CL     -11.5624    16.8787    11.8585 Cl    248 CCL4  -0.0812 
1400 CL     -10.4137    16.2811    14.5510 Cl    248 CCL4  -0.0812 
1401 CL      -8.7505    15.8885    12.3243 Cl    248 CCL4  -0.0812 
1402 CL     -16.7254     4.7713     4.6402 Cl    249 CCL4  -0.0812 
1403 C      -15.8343     6.3122     4.9836 C.3   249 CCL4   0.3246 
1404 CL     -14.3174     5.9441     5.9501 Cl    249 CCL4  -0.0812 
1405 CL     -16.9210     7.4030     5.8931 Cl    249 CCL4  -0.0812 
1406 CL     -15.3960     7.0906     3.4459 Cl    249 CCL4  -0.0812 
1407 CL     -14.2387    12.5214     7.9222 Cl    250 CCL4  -0.0812 
1408 C      -13.3711    11.0367     7.9773 C.3   250 CCL4   0.3246 
1409 CL     -13.8901     9.7986     6.7647 Cl    250 CCL4  -0.0812 
1410 CL     -13.7261    10.2309     9.6614 Cl    250 CCL4  -0.0812 
1411 CL     -11.5757    11.1932     7.9344 Cl    250 CCL4  -0.0812 
1412 CL     -15.7226     7.4350     9.9506 Cl    251 CCL4  -0.0812 
1413 C      -15.3484     6.6167    11.4656 C.3   251 CCL4   0.3246 
1414 CL     -14.0523     7.4338    12.3174 Cl    251 CCL4  -0.0812 
1415 CL     -14.8086     4.9257    11.1701 Cl    251 CCL4  -0.0812 
1416 CL     -16.8328     6.4121    12.5478 Cl    251 CCL4  -0.0812 
1417 CL     -11.9005    16.3426     4.9791 Cl    252 CCL4  -0.0812 
1418 C      -13.5854    16.6492     4.5355 C.3   252 CCL4   0.3246 
1419 CL     -14.6134    15.8353     5.7247 Cl    252 CCL4  -0.0812 
1420 CL     -14.0014    16.0515     2.8930 Cl    252 CCL4  -0.0812 
1421 CL     -14.1182    18.3418     4.6342 Cl    252 CCL4  -0.0812 
1422 CL     -11.8064    12.6163    17.1464 Cl    253 CCL4  -0.0812 
1423 C      -13.0648    13.7070    16.4997 C.3   253 CCL4   0.3246 
1424 CL     -14.7710    13.0031    17.0279 Cl    253 CCL4  -0.0812 
1425 CL     -13.0443    13.7789    14.7282 Cl    253 CCL4  -0.0812 
1426 CL     -13.1360    15.3125    17.2841 Cl    253 CCL4  -0.0812 
1427 CL     -15.7925    16.8297    15.5643 Cl    254 CCL4  -0.0812 
1428 C      -16.4703    17.1793    14.0009 C.3   254 CCL4   0.3246 
1429 CL     -17.2888    15.6819    13.5695 Cl    254 CCL4  -0.0812 
1430 CL     -15.3360    17.5907    12.6678 Cl    254 CCL4  -0.0812 
1431 CL     -17.7105    18.4625    14.0287 Cl    254 CCL4  -0.0812 
1432 CL     -13.4410     9.6591    18.0387 Cl    255 CCL4  -0.0812 
1433 C      -11.9621     8.9755    17.3493 C.3   255 CCL4   0.3246 
1434 CL     -11.7475     9.7382    15.7103 Cl    255 CCL4  -0.0812 
1435 CL     -12.0666     7.2239    17.2381 Cl    255 CCL4  -0.0812 
1436 CL     -10.5503     9.3631    18.3342 Cl    255 CCL4  -0.0812 
1437 CL     -16.8140    18.5159     7.1124 Cl    256 CCL4  -0.0812 
1438 C      -17.2392    20.3138     6.7411 C.3   256 CCL4   0.3246 
1439 CL     -16.3295    21.4304     7.7520 Cl    256 CCL4  -0.0812 
1440 CL     -18.9737    20.5346     7.1598 Cl    256 CCL4  -0.0812 
1441 CL     -16.8430    20.6687     5.0760 Cl    256 CCL4  -0.0812 
1442 CL     -12.1920    21.3247    15.0605 Cl    257 CCL4  -0.0812 
1443 C      -13.2097    20.0626    15.8522 C.3   257 CCL4   0.3246 
1444 CL     -12.8598    19.9677    17.6099 Cl    257 CCL4  -0.0812 
1445 CL     -12.8941    18.4623    15.1686 Cl    257 CCL4  -0.0812 
1446 CL     -14.9736    20.3648    15.5152 Cl    257 CCL4  -0.0812 
1447 CL      -5.0353    -7.4219   -14.3457 Cl    258 CCL4  -0.0812 
1448 C       -5.2696    -5.7804   -13.6815 C.3   258 CCL4   0.3246 
1449 CL      -6.7644    -5.1535   -14.3898 Cl    258 CCL4  -0.0812 
1450 CL      -3.8466    -4.7239   -13.9040 Cl    258 CCL4  -0.0812 
1451 CL      -5.4813    -5.9912   -11.9181 Cl    258 CCL4  -0.0812 
1452 CL       6.6216    -9.3761   -17.4865 Cl    259 CCL4  -0.0812 
1453 C        7.1229    -9.3763   -15.8661 C.3   259 CCL4   0.3246 
1454 CL       6.7864   -10.8719   -15.0813 Cl    259 CCL4  -0.0812 
1455 CL       6.5647    -8.0209   -14.9799 Cl    259 CCL4  -0.0812 
1456 CL       8.9150    -9.2498   -15.8883 Cl    259 CCL4  -0.0812 
1457 CL       4.5063    22.6095   -11.6989 Cl    260 CCL4  -0.0812 
1458 C        3.9085    23.6273   -13.0940 C.3   260 CCL4   0.3246 
1459 CL       2.6700    22.8486   -14.1766 Cl    260 CCL4  -0.0812 
1460 CL       5.2861    24.1881   -14.0931 Cl    260 CCL4  -0.0812 
1461 CL       3.1776    25.1661   -12.3535 Cl    260 CCL4  -0.0812 
1462 CL      -1.2253    -7.0696   -12.4520 Cl    261 CCL4  -0.0812 
1463 C       -0.9391    -8.8245   -12.3248 C.3   261 CCL4   0.3246 
1464 CL      -1.1839    -9.3397   -10.6341 Cl    261 CCL4  -0.0812 
1465 CL       0.6000    -9.4239   -12.8883 Cl    261 CCL4  -0.0812 
1466 CL      -2.1931    -9.6377   -13.2927 Cl    261 CCL4  -0.0812 
1467 CL       5.8794   -14.9175     2.5615 Cl    262 CCL4  -0.0812 
1468 C        4.2076   -14.3202     2.4346 C.3   262 CCL4   0.3246 
1469 CL       3.8517   -14.0682     0.6409 Cl    262 CCL4  -0.0812 
1470 CL       3.8781   -12.7966     3.2743 Cl    262 CCL4  -0.0812 
1471 CL       2.9737   -15.5432     2.8594 Cl    262 CCL4  -0.0812 
1472 CL      16.8953     4.0599     2.9946 Cl    263 CCL4  -0.0812 
1473 C       17.6113     3.7858     1.3741 C.3   263 CCL4   0.3246 
1474 CL      18.1811     5.4626     0.8982 Cl    263 CCL4  -0.0812 
1475 CL      16.4001     3.0843     0.2749 Cl    263 CCL4  -0.0812 
1476 CL      19.0014     2.7664     1.7048 Cl    263 CCL4  -0.0812 
1477 CL       0.2240     1.8125   -12.2697 Cl    264 CCL4  -0.0812 
1478 C        0.7582     3.3739   -12.9551 C.3   264 CCL4   0.3246 
1479 CL      -0.1699     4.7889   -12.4213 Cl    264 CCL4  -0.0812 
1480 CL       0.9049     3.3841   -14.7026 Cl    264 CCL4  -0.0812 
1481 CL       2.3917     3.6396   -12.2979 Cl    264 CCL4  -0.0812 
1482 CL       4.2204    -9.9872   -12.6193 Cl    265 CCL4  -0.0812 
1483 C        3.7119   -11.7145   -12.4032 C.3   265 CCL4   0.3246 
1484 CL       5.1390   -12.6579   -11.9390 Cl    265 CCL4  -0.0812 
1485 CL       3.0508   -12.3972   -13.8556 Cl    265 CCL4  -0.0812 
1486 CL       2.6163   -11.8299   -10.9522 Cl    265 CCL4  -0.0812 
1487 CL      -0.3730    23.9246   -12.6740 Cl    266 CCL4  -0.0812 
1488 C       -1.1170    24.4153   -11.1227 C.3   266 CCL4   0.3246 
1489 CL       0.1070    24.9039   -10.0500 Cl    266 CCL4  -0.0812 
1490 CL      -1.9939    23.0017   -10.5068 Cl    266 CCL4  -0.0812 
1491 CL      -2.3075    25.7579   -11.4276 Cl    266 CCL4  -0.0812 
1492 CL      15.7708    -1.5683   -15.1602 Cl    267 CCL4  -0.0812 
1493 C       15.7254     0.0519   -15.8425 C.3   267 CCL4   0.3246 
1494 CL      15.9705     1.3262   -14.4853 Cl    267 CCL4  -0.0812 
1495 CL      14.1100     0.4476   -16.4977 Cl    267 CCL4  -0.0812 
1496 CL      16.8918     0.4775   -17.0983 Cl    267 CCL4  -0.0812 
1497 CL       7.7508     4.5448   -16.5273 Cl    268 CCL4  -0.0812 
1498 C        5.9520     4.1293   -16.5316 C.3   268 CCL4   0.3246 
1499 CL       5.7417     2.4299   -17.1393 Cl    268 CCL4  -0.0812 
1500 CL       5.1089     5.2509   -17.5826 Cl    268 CCL4  -0.0812 
1501 CL       5.2810     4.4123   -14.8670 Cl    268 CCL4  -0.0812 
1502 CL      -0.3324     2.2035    22.4341 Cl    269 CCL4  -0.0812 
1503 C        1.1892     2.4926    21.5762 C.3   269 CCL4   0.3246 
1504 CL       1.5255     4.2645    22.0153 Cl    269 CCL4  -0.0812 
1505 CL       0.9548     2.4248    19.8259 Cl    269 CCL4  -0.0812 
1506 CL       2.5495     1.4067    21.9594 Cl    269 CCL4  -0.0812 
1507 CL       1.6748    -9.8058     2.9623 Cl    270 CCL4  -0.0812 
1508 C        1.3688    -9.6557     1.2570 C.3   270 CCL4   0.3246 
1509 CL       2.4391    -8.4875     0.4740 Cl    270 CCL4  -0.0812 
1510 CL      -0.3016    -9.1828     0.9091 Cl    270 CCL4  -0.0812 
1511 CL       1.5334   -11.2779     0.4409 Cl    270 CCL4  -0.0812 
1512 CL      -5.4266    -8.2155     3.3510 Cl    271 CCL4  -0.0812 
1513 C       -4.7244    -9.2133     1.9951 C.3   271 CCL4   0.3246 
1514 CL      -3.3406   -10.0493     2.6694 Cl    271 CCL4  -0.0812 
1515 CL      -4.1695    -8.0362     0.8248 Cl    271 CCL4  -0.0812 
1516 CL      -5.8407   -10.3812     1.3837 Cl    271 CCL4  -0.0812 
1517 CL       5.8514   -12.5141    21.5953 Cl    272 CCL4  -0.0812 
1518 C        5.6039   -14.0848    22.3611 C.3   272 CCL4   0.3246 
1519 CL       4.2251   -14.0486    23.4445 Cl    272 CCL4  -0.0812 
1520 CL       7.0610   -14.5708    23.3062 Cl    272 CCL4  -0.0812 
1521 CL       5.3812   -15.3649    21.0821 Cl    272 CCL4  -0.0812 
1522 CL       2.6487    -7.8996    21.6474 Cl    273 CCL4  -0.0812 
1523 C        2.2626    -9.3548    22.6954 C.3   273 CCL4   0.3246 
1524 CL       0.5590    -9.3294    23.3059 Cl    273 CCL4  -0.0812 
1525 CL       3.3890    -9.4993    24.0940 Cl    273 CCL4  -0.0812 
1526 CL       2.6459   -10.7582    21.6664 Cl    273 CCL4  -0.0812 
1527 CL       0.4998   -14.9687   -15.4362 Cl    274 CCL4  -0.0812 
1528 C       -0.5143   -13.7294   -14.7123 C.3   274 CCL4   0.3246 
1529 CL      -0.1850   -12.2043   -15.5559 Cl    274 CCL4  -0.0812 
1530 CL       0.1066   -13.4854   -12.9942 Cl    274 CCL4  -0.0812 
1531 CL      -2.1898   -14.2559   -14.7396 Cl    274 CCL4  -0.0812 
1532 CL     -29.7915    -9.5406   -11.5224 Cl    275 CCL4  -0.0812 
1533 C      -30.1207   -11.1682   -12.1791 C.3   275 CCL4   0.3246 
1534 CL     -31.3716   -12.0071   -11.2927 Cl    275 CCL4  -0.0812 
1535 CL     -28.7284   -12.1711   -11.9454 Cl    275 CCL4  -0.0812 
1536 CL     -30.5336   -10.9194   -13.9298 Cl    275 CCL4  -0.0812 
1537 CL      17.9377   -10.3444    -6.7267 Cl    276 CCL4  -0.0812 
1538 C       17.1810   -11.9123    -6.2468 C.3   276 CCL4   0.3246 
1539 CL      17.0729   -12.9659    -7.7021 Cl    276 CCL4  -0.0812 
1540 CL      15.5011   -11.5699    -5.6124 Cl    276 CCL4  -0.0812 
1541 CL      18.1273   -12.8168    -4.9489 Cl    276 CCL4  -0.0812 
1542 CL      -3.3878     4.1368   -13.0674 Cl    277 CCL4  -0.0812 
1543 C       -4.7447     3.3740   -12.1780 C.3   277 CCL4   0.3246 
1544 CL      -6.2636     3.9566   -12.9403 Cl    277 CCL4  -0.0812 
1545 CL      -4.7357     3.9654   -10.5275 Cl    277 CCL4  -0.0812 
1546 CL      -4.4764     1.6366   -12.2731 Cl    277 CCL4  -0.0812 
1547 CL      -0.8880    25.6579    -4.0519 Cl    278 CCL4  -0.0812 
1548 C       -0.4158    24.1920    -5.0417 C.3   278 CCL4   0.3246 
1549 CL      -1.9598    23.6753    -5.7945 Cl    278 CCL4  -0.0812 
1550 CL       0.3618    22.8718    -4.0627 Cl    278 CCL4  -0.0812 
1551 CL       0.6636    24.7770    -6.2989 Cl    278 CCL4  -0.0812 
1552 CL       6.0741   -10.1971    -1.9656 Cl    279 CCL4  -0.0812 
1553 C        6.8181   -10.8957    -0.6119 C.3   279 CCL4   0.3246 
1554 CL       5.7948   -10.8625     0.8377 Cl    279 CCL4  -0.0812 
1555 CL       8.1931    -9.8757    -0.1055 Cl    279 CCL4  -0.0812 
1556 CL       7.3674   -12.5251    -0.9432 Cl    279 CCL4  -0.0812 
1557 CL       4.8713   -11.9355    -7.8923 Cl    280 CCL4  -0.0812 
1558 C        5.7722   -10.8627    -6.8186 C.3   280 CCL4   0.3246 
1559 CL       6.9321    -9.7754    -7.6271 Cl    280 CCL4  -0.0812 
1560 CL       6.7442   -11.9474    -5.5706 Cl    280 CCL4  -0.0812 
1561 CL       4.6662    -9.8972    -5.8389 Cl    280 CCL4  -0.0812 
1562 CL       3.7940    -8.6158    -9.0739 Cl    281 CCL4  -0.0812 
1563 C        2.2200    -8.3382    -8.2044 C.3   281 CCL4   0.3246 
1564 CL       2.4932    -7.3902    -6.7721 Cl    281 CCL4  -0.0812 
1565 CL       1.5187    -9.9554    -7.7589 Cl    281 CCL4  -0.0812 
1566 CL       1.1901    -7.4562    -9.2562 Cl    281 CCL4  -0.0812 
1567 CL       8.8026   -16.4618    -9.5109 Cl    282 CCL4  -0.0812 
1568 C        7.2643   -16.0374    -8.9224 C.3   282 CCL4   0.3246 
1569 CL       6.1824   -15.7186   -10.3649 Cl    282 CCL4  -0.0812 
1570 CL       7.3540   -14.5875    -7.9847 Cl    282 CCL4  -0.0812 
1571 CL       6.5295   -17.3204    -7.9950 Cl    282 CCL4  -0.0812 
1572 CL       5.6195   -15.1123    -3.1007 Cl    283 CCL4  -0.0812 
1573 C        4.5891   -16.0938    -4.0627 C.3   283 CCL4   0.3246 
1574 CL       4.1105   -15.2226    -5.5348 Cl    283 CCL4  -0.0812 
1575 CL       3.1787   -16.4505    -3.0929 Cl    283 CCL4  -0.0812 
1576 CL       5.3884   -17.5768    -4.4765 Cl    283 CCL4  -0.0812 
1577 CL      10.1787    -7.5231    -5.2418 Cl    284 CCL4  -0.0812 
1578 C       10.7760    -8.7255    -4.1352 C.3   284 CCL4   0.3246 
1579 CL      10.0180   -10.2951    -4.5394 Cl    284 CCL4  -0.0812 
1580 CL      10.3143    -8.3183    -2.4326 Cl    284 CCL4  -0.0812 
1581 CL      12.5397    -8.9352    -4.1483 Cl    284 CCL4  -0.0812 
1582 CL      -0.1125   -12.1900    -2.3272 Cl    285 CCL4  -0.0812 
1583 C        1.3725   -11.9026    -3.2704 C.3   285 CCL4   0.3246 
1584 CL       1.0015   -12.2368    -4.9558 Cl    285 CCL4  -0.0812 
1585 CL       2.5750   -12.9695    -2.6207 Cl    285 CCL4  -0.0812 
1586 CL       1.7986   -10.1354    -3.1644 Cl    285 CCL4  -0.0812 
1587 CL      16.2686    -7.6783    -2.8361 Cl    286 CCL4  -0.0812 
1588 C       17.6178    -8.4840    -1.9361 C.3   286 CCL4   0.3246 
1589 CL      19.2156    -8.0936    -2.7587 Cl    286 CCL4  -0.0812 
1590 CL      17.3667   -10.2425    -1.9988 Cl    286 CCL4  -0.0812 
1591 CL      17.6241    -7.7981    -0.2712 Cl    286 CCL4  -0.0812 
1592 CL      -1.8106   -12.4674    -9.0523 Cl    287 CCL4  -0.0812 
1593 C       -2.9057   -13.4297    -8.1173 C.3   287 CCL4   0.3246 
1594 CL      -4.5922   -13.1371    -8.5828 Cl    287 CCL4  -0.0812 
1595 CL      -2.8291   -12.8688    -6.4825 Cl    287 CCL4  -0.0812 
1596 CL      -2.4881   -15.1425    -8.2276 Cl    287 CCL4  -0.0812 
1597 CL      18.7733     0.7818    -5.9644 Cl    288 CCL4  -0.0812 
1598 C       19.2192     1.6284    -7.4547 C.3   288 CCL4   0.3246 
1599 CL      19.8958     3.2217    -6.9619 Cl    288 CCL4  -0.0812 
1600 CL      17.6240     1.8853    -8.2044 Cl    288 CCL4  -0.0812 
1601 CL      20.2908     0.7840    -8.6137 Cl    288 CCL4  -0.0812 
1602 CL       1.3827    23.3063    -0.7140 Cl    289 CCL4  -0.0812 
1603 C        0.1008    24.3948    -0.0852 C.3   289 CCL4   0.3246 
1604 CL      -0.1262    23.8608     1.6250 Cl    289 CCL4  -0.0812 
1605 CL      -1.3470    24.2703    -1.0544 Cl    289 CCL4  -0.0812 
1606 CL       0.6255    26.0979    -0.1110 Cl    289 CCL4  -0.0812 
1607 CL       3.8367    -4.2535   -14.6401 Cl    290 CCL4  -0.0812 
1608 C        3.1464    -5.3837   -13.4437 C.3   290 CCL4   0.3246 
1609 CL       2.0103    -6.4790   -14.4426 Cl    290 CCL4  -0.0812 
1610 CL       2.1936    -4.3349   -12.2927 Cl    290 CCL4  -0.0812 
1611 CL       4.3152    -6.4527   -12.6794 Cl    290 CCL4  -0.0812 
1612 CL       3.1404    -0.2512    -7.2585 Cl    291 CCL4  -0.0812 
1613 C        2.7523    -0.5668    -9.0154 C.3   291 CCL4   0.3246 
1614 CL       1.5533    -1.9882    -9.0322 Cl    291 CCL4  -0.0812 
1615 CL       4.2955    -1.1540    -9.7784 Cl    291 CCL4  -0.0812 
1616 CL       2.1083     0.8145    -9.7652 Cl    291 CCL4  -0.0812 
1617 CL      -0.7733    -1.5080   -11.8427 Cl    292 CCL4  -0.0812 
1618 C       -1.8980    -2.2991   -10.7463 C.3   292 CCL4   0.3246 
1619 CL      -1.4989    -3.9804   -10.4901 Cl    292 CCL4  -0.0812 
1620 CL      -3.5422    -2.1767   -11.4928 Cl    292 CCL4  -0.0812 
1621 CL      -1.9069    -1.5392    -9.1219 Cl    292 CCL4  -0.0812 
1622 CL      19.2628    -4.6193    -1.0527 Cl    293 CCL4  -0.0812 
1623 C       19.1807    -3.8577     0.5014 C.3   293 CCL4   0.3246 
1624 CL      18.3610    -4.9202     1.7043 Cl    293 CCL4  -0.0812 
1625 CL      18.2970    -2.3754     0.3654 Cl    293 CCL4  -0.0812 
1626 CL      20.8453    -3.5703     1.0972 Cl    293 CCL4  -0.0812 
1627 CL       3.9541    -1.2759   -16.2053 Cl    294 CCL4  -0.0812 
1628 C        2.9626    -0.4456   -14.9263 C.3   294 CCL4   0.3246 
1629 CL       3.0404    -1.1237   -13.3288 Cl    294 CCL4  -0.0812 
1630 CL       1.2368    -0.3503   -15.3092 Cl    294 CCL4  -0.0812 
1631 CL       3.5727     1.2499   -14.8917 Cl    294 CCL4  -0.0812 
1632 CL      -1.6409     4.1583    -7.0653 Cl    295 CCL4  -0.0812 
1633 C       -1.0957     2.4672    -7.3572 C.3   295 CCL4   0.3246 
1634 CL      -2.0558     1.3684    -6.3798 Cl    295 CCL4  -0.0812 
1635 CL       0.5691     2.1922    -6.9566 Cl    295 CCL4  -0.0812 
1636 CL      -1.2871     2.0347    -9.0354 Cl    295 CCL4  -0.0812 
1637 CL      -1.0808    -6.0629   -16.0909 Cl    296 CCL4  -0.0812 
1638 C       -0.8201    -4.3504   -16.1859 C.3   296 CCL4   0.3246 
1639 CL      -1.9421    -3.4956   -17.1501 Cl    296 CCL4  -0.0812 
1640 CL       0.9034    -4.1528   -16.9572 Cl    296 CCL4  -0.0812 
1641 CL      -0.5812    -3.6685   -14.5274 Cl    296 CCL4  -0.0812 
1642 CL      17.5075    -7.7628    -8.8116 Cl    297 CCL4  -0.0812 
1643 C       16.5453    -6.9718    -7.5501 C.3   297 CCL4   0.3246 
1644 CL      17.5768    -6.3563    -6.2478 Cl    297 CCL4  -0.0812 
1645 CL      15.3299    -7.9536    -6.8124 Cl    297 CCL4  -0.0812 
1646 CL      15.8356    -5.3710    -8.3072 Cl    297 CCL4  -0.0812 
1647 CL      18.2775    -2.2419   -10.1316 Cl    298 CCL4  -0.0812 
1648 C       17.4640    -1.6178   -11.4875 C.3   298 CCL4   0.3246 
1649 CL      15.8836    -2.4375   -11.5936 Cl    298 CCL4  -0.0812 
1650 CL      18.1925    -1.9355   -12.9884 Cl    298 CCL4  -0.0812 
1651 CL      17.2451     0.0817   -11.1908 Cl    298 CCL4  -0.0812 
1652 CL       7.3809    -1.2163    -2.8276 Cl    299 CCL4  -0.0812 
1653 C        5.7960    -1.2259    -2.0265 C.3   299 CCL4   0.3246 
1654 CL       5.6591    -2.4355    -0.7099 Cl    299 CCL4  -0.0812 
1655 CL       4.4496    -1.4623    -3.2652 Cl    299 CCL4  -0.0812 
1656 CL       5.4376     0.4569    -1.4730 Cl    299 CCL4  -0.0812 
1657 CL       4.7251    -3.4142    -6.7788 Cl    300 CCL4  -0.0812 
1658 C        5.3827    -4.6274    -7.9038 C.3   300 CCL4   0.3246 
1659 CL       4.2403    -5.0395    -9.1533 Cl    300 CCL4  -0.0812 
1660 CL       5.8771    -6.0425    -7.0704 Cl    300 CCL4  -0.0812 
1661 CL       6.7224    -3.9169    -8.7832 Cl    300 CCL4  -0.0812 
1662 CL       9.2466    -1.5468    -8.3095 Cl    301 CCL4  -0.0812 
1663 C        8.7514    -1.7500    -6.5051 C.3   301 CCL4   0.3246 
1664 CL       7.0740    -1.0516    -6.2102 Cl    301 CCL4  -0.0812 
1665 CL       9.9779    -0.8046    -5.5220 Cl    301 CCL4  -0.0812 
1666 CL       8.8463    -3.4527    -6.0251 Cl    301 CCL4  -0.0812 
1667 CL       0.2440    -6.5308    -1.6976 Cl    302 CCL4  -0.0812 
1668 C       -1.2800    -6.9404    -2.4769 C.3   302 CCL4   0.3246 
1669 CL      -2.6734    -6.1957    -1.7544 Cl    302 CCL4  -0.0812 
1670 CL      -1.4385    -8.7219    -2.5016 Cl    302 CCL4  -0.0812 
1671 CL      -1.1971    -6.4405    -4.1374 Cl    302 CCL4  -0.0812 
1672 CL       0.1360    -1.3188    -5.2716 Cl    303 CCL4  -0.0812 
1673 C       -0.2226    -3.1031    -5.2562 C.3   303 CCL4   0.3246 
1674 CL      -1.3697    -3.6767    -6.4353 Cl    303 CCL4  -0.0812 
1675 CL      -0.9861    -3.3368    -3.6044 Cl    303 CCL4  -0.0812 
1676 CL       1.2650    -4.1115    -5.3134 Cl    303 CCL4  -0.0812 
1677 CL      15.7927     0.6399    -3.3782 Cl    304 CCL4  -0.0812 
1678 C       16.7740    -0.1843    -2.1869 C.3   304 CCL4   0.3246 
1679 CL      17.3583    -1.6894    -2.9176 Cl    304 CCL4  -0.0812 
1680 CL      15.8337    -0.4847    -0.8362 Cl    304 CCL4  -0.0812 
1681 CL      18.2310     0.8583    -1.8203 Cl    304 CCL4  -0.0812 
1682 CL       6.4630     4.3646    -5.7280 Cl    305 CCL4  -0.0812 
1683 C        6.5805     2.6040    -5.8774 C.3   305 CCL4   0.3246 
1684 CL       8.1898     2.0901    -5.4561 Cl    305 CCL4  -0.0812 
1685 CL       6.4999     2.1514    -7.6096 Cl    305 CCL4  -0.0812 
1686 CL       5.4212     1.8264    -4.8292 Cl    305 CCL4  -0.0812 
1687 CL       2.0830    -3.6539    -1.7214 Cl    306 CCL4  -0.0812 
1688 C        1.6341    -3.1642    -0.0738 C.3   306 CCL4   0.3246 
1689 CL       2.3110    -4.5796     0.8605 Cl    306 CCL4  -0.0812 
1690 CL      -0.1441    -3.0973     0.1491 Cl    306 CCL4  -0.0812 
1691 CL       2.3119    -1.6026     0.3729 Cl    306 CCL4  -0.0812 
1692 CL       6.3262    -6.7288    -1.1547 Cl    307 CCL4  -0.0812 
1693 C        5.6924    -6.5962    -2.8135 C.3   307 CCL4   0.3246 
1694 CL       6.7018    -7.4096    -4.0001 Cl    307 CCL4  -0.0812 
1695 CL       5.4815    -4.7991    -3.2684 Cl    307 CCL4  -0.0812 
1696 CL       4.1312    -7.3468    -2.9139 Cl    307 CCL4  -0.0812 
1697 CL      12.7843    -1.2020    -7.5532 Cl    308 CCL4  -0.0812 
1698 C       14.4182    -0.8117    -6.9693 C.3   308 CCL4   0.3246 
1699 CL      14.5345     0.9604    -6.6619 Cl    308 CCL4  -0.0812 
1700 CL      15.6408    -1.3228    -8.1861 Cl    308 CCL4  -0.0812 
1701 CL      14.7060    -1.5421    -5.3853 Cl    308 CCL4  -0.0812 
1702 CL      -4.8402    -4.2241    -4.4757 Cl    309 CCL4  -0.0812 
1703 C       -4.9311    -3.3615    -6.0329 C.3   309 CCL4   0.3246 
1704 CL      -4.1028    -1.7206    -6.0369 Cl    309 CCL4  -0.0812 
1705 CL      -6.6582    -2.8464    -6.2073 Cl    309 CCL4  -0.0812 
1706 CL      -4.3337    -4.3273    -7.4336 Cl    309 CCL4  -0.0812 
1707 CL      -3.7994    -7.7056    -5.7058 Cl    310 CCL4  -0.0812 
1708 C       -2.7156    -8.3037    -6.9748 C.3   310 CCL4   0.3246 
1709 CL      -3.6619    -9.6353    -7.6789 Cl    310 CCL4  -0.0812 
1710 CL      -1.3835    -9.1557    -6.1615 Cl    310 CCL4  -0.0812 
1711 CL      -2.2078    -7.0524    -8.1426 Cl    310 CCL4  -0.0812 
1712 CL       9.5227    -4.2265    -1.5762 Cl    311 CCL4  -0.0812 
1713 C        9.6339    -4.4094     0.1624 C.3   311 CCL4   0.3246 
1714 CL      11.3150    -3.7292     0.5953 Cl    311 CCL4  -0.0812 
1715 CL       9.5263    -6.1653     0.5545 Cl    311 CCL4  -0.0812 
1716 CL       8.4399    -3.4738     1.0421 Cl    311 CCL4  -0.0812 
1717 CL      11.7959    -6.1116   -16.1463 Cl    312 CCL4  -0.0812 
1718 C       12.3269    -4.7642   -15.1660 C.3   312 CCL4   0.3246 
1719 CL      12.0799    -3.1972   -16.0638 Cl    312 CCL4  -0.0812 
1720 CL      14.0791    -4.9950   -14.9076 Cl    312 CCL4  -0.0812 
1721 CL      11.3926    -4.7123   -13.5928 Cl    312 CCL4  -0.0812 
1722 CL       9.9620   -11.9183   -13.2519 Cl    313 CCL4  -0.0812 
1723 C        9.4119   -13.2903   -12.2942 C.3   313 CCL4   0.3246 
1724 CL       8.4254   -12.7385   -10.9289 Cl    313 CCL4  -0.0812 
1725 CL      10.8417   -14.0901   -11.6926 Cl    313 CCL4  -0.0812 
1726 CL       8.3751   -14.3591   -13.3614 Cl    313 CCL4  -0.0812 
1727 CL      15.0548   -10.8510     2.0693 Cl    314 CCL4  -0.0812 
1728 C       15.8529   -12.1504     2.9852 C.3   314 CCL4   0.3246 
1729 CL      14.4772   -12.9863     3.7084 Cl    314 CCL4  -0.0812 
1730 CL      16.8724   -11.3687     4.1341 Cl    314 CCL4  -0.0812 
1731 CL      16.6783   -13.2154     1.9381 Cl    314 CCL4  -0.0812 
1732 CL      14.8032    -9.8284    22.9457 Cl    315 CCL4  -0.0812 
1733 C       16.2750    -8.8704    22.8414 C.3   315 CCL4   0.3246 
1734 CL      17.7555    -9.8861    22.9761 Cl    315 CCL4  -0.0812 
1735 CL      16.3609    -7.5837    24.0252 Cl    315 CCL4  -0.0812 
1736 CL      16.3956    -8.0400    21.2411 Cl    315 CCL4  -0.0812 
1737 CL      13.8024   -15.1456   -13.2997 Cl    316 CCL4  -0.0812 
1738 C       14.5256   -13.5629   -13.2619 C.3   316 CCL4   0.3246 
1739 CL      14.8580   -13.1964   -11.4742 Cl    316 CCL4  -0.0812 
1740 CL      13.3880   -12.2977   -13.7865 Cl    316 CCL4  -0.0812 
1741 CL      16.0098   -13.3682   -14.1910 Cl    316 CCL4  -0.0812 
1742 CL      15.4286    -6.3621   -11.9879 Cl    317 CCL4  -0.0812 
1743 C       14.8904    -8.1230   -12.0726 C.3   317 CCL4   0.3246 
1744 CL      13.4376    -8.1213   -13.1415 Cl    317 CCL4  -0.0812 
1745 CL      14.5863    -8.7189   -10.4490 Cl    317 CCL4  -0.0812 
1746 CL      16.2495    -9.1115   -12.6757 Cl    317 CCL4  -0.0812 
1747 CL      10.7613   -12.4786   -17.0778 Cl    318 CCL4  -0.0812 
1748 C       11.6289   -13.9633   -17.0227 C.3   318 CCL4   0.3246 
1749 CL      11.1099   -15.2014   -18.2353 Cl    318 CCL4  -0.0812 
1750 CL      11.2739   -14.7691   -15.3386 Cl    318 CCL4  -0.0812 
1751 CL      13.4243   -13.8068   -17.0656 Cl    318 CCL4  -0.0812 
1752 CL      11.1416     0.0870   -11.4054 Cl    319 CCL4  -0.0812 
1753 C       12.7813     0.5281   -11.9050 C.3   319 CCL4   0.3246 
1754 CL      13.7175     0.8912   -10.5298 Cl    319 CCL4  -0.0812 
1755 CL      12.7049     2.0529   -12.7987 Cl    319 CCL4  -0.0812 
1756 CL      13.3897    -0.8108   -12.8636 Cl    319 CCL4  -0.0812 
1757 CL       8.5302     0.0561   -17.3961 Cl    320 CCL4  -0.0812 
1758 C       10.2146     0.3077   -16.9271 C.3   320 CCL4   0.3246 
1759 CL      10.5142    -0.3127   -15.3093 Cl    320 CCL4  -0.0812 
1760 CL      10.3438     2.1317   -16.9189 Cl    320 CCL4  -0.0812 
1761 CL      11.2118    -0.5043   -18.2544 Cl    320 CCL4  -0.0812 
1762 CL      13.1936   -12.3837    -7.8536 Cl    321 CCL4  -0.0812 
1763 C       11.9352   -11.2930    -8.5003 C.3   321 CCL4   0.3246 
1764 CL      10.2290   -11.9969    -7.9721 Cl    321 CCL4  -0.0812 
1765 CL      11.9557   -11.2211   -10.2718 Cl    321 CCL4  -0.0812 
1766 CL      11.8640    -9.6875    -7.7159 Cl    321 CCL4  -0.0812 
1767 CL       9.2075    -8.1703    -9.4357 Cl    322 CCL4  -0.0812 
1768 C        8.5297    -7.8207   -10.9991 C.3   322 CCL4   0.3246 
1769 CL       7.7112    -9.3181   -11.4305 Cl    322 CCL4  -0.0812 
1770 CL       9.6640    -7.4093   -12.3322 Cl    322 CCL4  -0.0812 
1771 CL       7.2895    -6.5375   -10.9713 Cl    322 CCL4  -0.0812 
1772 CL      11.5590   -15.3409    -6.9613 Cl    323 CCL4  -0.0812 
1773 C       13.0379   -16.0245    -7.6507 C.3   323 CCL4   0.3246 
1774 CL      13.2525   -15.2618    -9.2897 Cl    323 CCL4  -0.0812 
1775 CL      12.9334   -17.7761    -7.7619 Cl    323 CCL4  -0.0812 
1776 CL      14.4497   -15.6369    -6.6658 Cl    323 CCL4  -0.0812 
1777 CL      -3.4609   -13.7859    -2.7853 Cl    324 CCL4  -0.0812 
1778 C       -3.8890   -12.7844    -1.4113 C.3   324 CCL4   0.3246 
1779 CL      -4.2609   -11.1065    -1.8433 Cl    324 CCL4  -0.0812 
1780 CL      -5.4545   -13.3548    -0.7066 Cl    324 CCL4  -0.0812 
1781 CL      -2.6462   -12.8962    -0.1325 Cl    324 CCL4  -0.0812 
1782 CL      13.0486    -6.4675     1.8655 Cl    325 CCL4  -0.0812 
1783 C       14.6461    -6.8360     1.1870 C.3   325 CCL4   0.3246 
1784 CL      15.2940    -5.3383     0.3319 Cl    325 CCL4  -0.0812 
1785 CL      14.4584    -8.1566     0.0561 Cl    325 CCL4  -0.0812 
1786 CL      15.7986    -7.3281     2.5365 Cl    325 CCL4  -0.0812 
1787 CL       9.7776     4.9006    -8.1543 Cl    326 CCL4  -0.0812 
1788 C       11.0479     3.6554    -8.3049 C.3   326 CCL4   0.3246 
1789 CL      12.0297     3.6503    -6.8068 Cl    326 CCL4  -0.0812 
1790 CL      11.9022     4.0409    -9.8823 Cl    326 CCL4  -0.0812 
1791 CL      10.3315     2.0195    -8.3955 Cl    326 CCL4  -0.0812 
1792 CL       9.6401     1.6167    -1.9908 Cl    327 CCL4  -0.0812 
1793 C       11.3027     1.0197    -2.1576 C.3   327 CCL4   0.3246 
1794 CL      11.8839     1.6773    -3.7403 Cl    327 CCL4  -0.0812 
1795 CL      11.4289    -0.7091    -1.9992 Cl    327 CCL4  -0.0812 
1796 CL      12.2588     1.7822    -0.8005 Cl    327 CCL4  -0.0812 
1797 CL      13.3888   -13.5015     0.2732 Cl    328 CCL4  -0.0812 
1798 C       12.3588   -12.7261    -0.9819 C.3   328 CCL4   0.3246 
1799 CL      11.3086   -13.9567    -1.6816 Cl    328 CCL4  -0.0812 
1800 CL      13.3134   -11.9234    -2.2306 Cl    328 CCL4  -0.0812 
1801 CL      11.3281   -11.5294    -0.0281 Cl    328 CCL4  -0.0812 
1802 CL      16.0857   -13.9873    -1.6260 Cl    329 CCL4  -0.0812 
1803 C       16.0802   -15.6344    -2.0491 C.3   329 CCL4   0.3246 
1804 CL      16.5443   -16.5566    -0.5507 Cl    329 CCL4  -0.0812 
1805 CL      17.2342   -16.0075    -3.2572 Cl    329 CCL4  -0.0812 
1806 CL      14.4798   -16.1291    -2.4624 Cl    329 CCL4  -0.0812 
1807 CL      14.9312    -4.7592    -4.2744 Cl    330 CCL4  -0.0812 
1808 C       13.5842    -4.4170    -3.2427 C.3   330 CCL4   0.3246 
1809 CL      12.2536    -3.7058    -4.1692 Cl    330 CCL4  -0.0812 
1810 CL      14.0898    -2.9819    -2.3081 Cl    330 CCL4  -0.0812 
1811 CL      12.8944    -5.7571    -2.2100 Cl    330 CCL4  -0.0812 
1812 CL       9.6181    -0.6218     3.2442 Cl    331 CCL4  -0.0812 
1813 C        8.5891     0.6344     2.6500 C.3   331 CCL4   0.3246 
1814 CL       9.6356     1.6535     1.6306 Cl    331 CCL4  -0.0812 
1815 CL       7.7718     1.4865     4.0647 Cl    331 CCL4  -0.0812 
1816 CL       7.2343    -0.0460     1.6652 Cl    331 CCL4  -0.0812 
1817 CL       8.1860    -6.4841    22.1124 Cl    332 CCL4  -0.0812 
1818 C        7.7608    -4.6862    21.7411 C.3   332 CCL4   0.3246 
1819 CL       8.6705    -3.5696    22.7520 Cl    332 CCL4  -0.0812 
1820 CL       6.0263    -4.4654    22.1598 Cl    332 CCL4  -0.0812 
1821 CL       8.1570    -4.3313    20.0760 Cl    332 CCL4  -0.0812 
1822 CL      12.8080    -3.6753    -9.9395 Cl    333 CCL4  -0.0812 
1823 C       11.7903    -4.9374    -9.1478 C.3   333 CCL4   0.3246 
1824 CL      12.1402    -5.0323    -7.3901 Cl    333 CCL4  -0.0812 
1825 CL      12.1059    -6.5377    -9.8314 Cl    333 CCL4  -0.0812 
1826 CL      10.0264    -4.6352    -9.4848 Cl    333 CCL4  -0.0812 
1827 CL       7.0779    -1.7269   -14.5573 Cl    334 CCL4  -0.0812 
1828 C        7.5102    -2.9926   -13.4146 C.3   334 CCL4   0.3246 
1829 CL       6.2084    -2.9645   -12.2723 Cl    334 CCL4  -0.0812 
1830 CL       9.0817    -2.6301   -12.5181 Cl    334 CCL4  -0.0812 
1831 CL       7.7694    -4.5094   -14.1896 Cl    334 CCL4  -0.0812 
1832 CL       7.3792     1.6938   -13.3681 Cl    335 CCL4  -0.0812 
1833 C        7.0044     1.9007   -11.6857 C.3   335 CCL4   0.3246 
1834 CL       7.9479     3.3246   -11.1717 Cl    335 CCL4  -0.0812 
1835 CL       7.5115     0.4665   -10.8103 Cl    335 CCL4  -0.0812 
1836 CL       5.3241     2.2046   -11.3081 Cl    335 CCL4  -0.0812 
1837 CL      -5.0353    -7.4219    10.6543 Cl    336 CCL4  -0.0812 
1838 C       -5.2696    -5.7804    11.3185 C.3   336 CCL4   0.3246 
1839 CL      -6.7644    -5.1535    10.6102 Cl    336 CCL4  -0.0812 
1840 CL      -3.8466    -4.7239    11.0960 Cl    336 CCL4  -0.0812 
1841 CL      -5.4813    -5.9912    13.0819 Cl    336 CCL4  -0.0812 
1842 CL       6.6216    -9.3761     7.5135 Cl    337 CCL4  -0.0812 
1843 C        7.1229    -9.3763     9.1339 C.3   337 CCL4   0.3246 
1844 CL       6.7864   -10.8719     9.9187 Cl    337 CCL4  -0.0812 
1845 CL       6.5647    -8.0209    10.0201 Cl    337 CCL4  -0.0812 
1846 CL       8.9150    -9.2498     9.1117 Cl    337 CCL4  -0.0812 
1847 CL       4.5063    22.6095    13.3011 Cl    338 CCL4  -0.0812 
1848 C        3.9085    23.6273    11.9060 C.3   338 CCL4   0.3246 
1849 CL       2.6700    22.8486    10.8234 Cl    338 CCL4  -0.0812 
1850 CL       5.2861    24.1881    10.9069 Cl    338 CCL4  -0.0812 
1851 CL       3.1776    25.1661    12.6465 Cl    338 CCL4  -0.0812 
1852 CL      -1.2253    -7.0696    12.5480 Cl    339 CCL4  -0.0812 
1853 C       -0.9391    -8.8245    12.6752 C.3   339 CCL4   0.3246 
1854 CL      -1.1839    -9.3397    14.3659 Cl    339 CCL4  -0.0812 
1855 CL       0.6000    -9.4239    12.1117 Cl    339 CCL4  -0.0812 
1856 CL      -2.1931    -9.6377    11.7073 Cl    339 CCL4  -0.0812 
1857 CL       0.2240     1.8125    12.7303 Cl    340 CCL4  -0.0812 
1858 C        0.7582     3.3739    12.0449 C.3   340 CCL4   0.3246 
1859 CL      -0.1699     4.7889    12.5787 Cl    340 CCL4  -0.0812 
1860 CL       0.9049     3.3841    10.2974 Cl    340 CCL4  -0.0812 
1861 CL       2.3917     3.6396    12.7021 Cl    340 CCL4  -0.0812 
1862 CL       4.2204    -9.9872    12.3807 Cl    341 CCL4  -0.0812 
1863 C        3.7119   -11.7145    12.5968 C.3   341 CCL4   0.3246 
1864 CL       5.1390   -12.6579    13.0610 Cl    341 CCL4  -0.0812 
1865 CL       3.0508   -12.3972    11.1444 Cl    341 CCL4  -0.0812 
1866 CL       2.6163   -11.8299    14.0478 Cl    341 CCL4  -0.0812 
1867 CL      -0.3730    23.9246    12.3260 Cl    342 CCL4  -0.0812 
1868 C       -1.1170    24.4153    13.8773 C.3   342 CCL4   0.3246 
1869 CL       0.1070    24.9039    14.9500 Cl    342 CCL4  -0.0812 
1870 CL      -1.9939    23.0017    14.4932 Cl    342 CCL4  -0.0812 
1871 CL      -2.3075    25.7579    13.5724 Cl    342 CCL4  -0.0812 
1872 CL      15.7708    -1.5683     9.8398 Cl    343 CCL4  -0.0812 
1873 C       15.7254     0.0519     9.1575 C.3   343 CCL4   0.3246 
1874 CL      15.9705     1.3262    10.5147 Cl    343 CCL4  -0.0812 
1875 CL      14.1100     0.4476     8.5023 Cl    343 CCL4  -0.0812 
1876 CL      16.8918     0.4775     7.9017 Cl    343 CCL4  -0.0812 
1877 CL       7.7508     4.5448     8.4727 Cl    344 CCL4  -0.0812 
1878 C        5.9520     4.1293     8.4684 C.3   344 CCL4   0.3246 
1879 CL       5.7417     2.4299     7.8607 Cl    344 CCL4  -0.0812 
1880 CL       5.1089     5.2509     7.4174 Cl    344 CCL4  -0.0812 
1881 CL       5.2810     4.4123    10.1330 Cl    344 CCL4  -0.0812 
1882 CL       8.6773   -11.7892     2.8397 Cl    345 CCL4  -0.0812 
1883 C        9.6781   -13.1153     3.5935 C.3   345 CCL4   0.3246 
1884 CL      10.0952   -14.1940     2.2497 Cl    345 CCL4  -0.0812 
1885 CL       8.7418   -13.9120     4.8310 Cl    345 CCL4  -0.0812 
1886 CL      11.1057   -12.3863     4.3368 Cl    345 CCL4  -0.0812 
1887 CL       5.8514   -12.5141     6.5953 Cl    346 CCL4  -0.0812 
1888 C        5.6039   -14.0848     7.3611 C.3   346 CCL4   0.3246 
1889 CL       4.2251   -14.0486     8.4445 Cl    346 CCL4  -0.0812 
1890 CL       7.0610   -14.5708     8.3062 Cl    346 CCL4  -0.0812 
1891 CL       5.3812   -15.3649     6.0821 Cl    346 CCL4  -0.0812 
1892 CL      -0.9499   -14.2889     3.4141 Cl    347 CCL4  -0.0812 
1893 C       -0.4783   -14.8822     5.0246 C.3   347 CCL4   0.3246 
1894 CL      -1.6584   -14.2996     6.1837 Cl    347 CCL4  -0.0812 
1895 CL       1.0588   -14.1389     5.4769 Cl    347 CCL4  -0.0812 
1896 CL      -0.2733   -16.6344     4.9502 Cl    347 CCL4  -0.0812 
1897 CL       2.6487    -7.8996     6.6474 Cl    348 CCL4  -0.0812 
1898 C        2.2626    -9.3548     7.6954 C.3   348 CCL4   0.3246 
1899 CL       0.5590    -9.3294     8.3059 Cl    348 CCL4  -0.0812 
1900 CL       3.3890    -9.4993     9.0940 Cl    348 CCL4  -0.0812 
1901 CL       2.6459   -10.7582     6.6664 Cl    348 CCL4  -0.0812 
1902 CL      -4.5205   -11.3742     5.8342 Cl    349 CCL4  -0.0812 
1903 C       -3.2752   -10.4406     6.6702 C.3   349 CCL4   0.3246 
1904 CL      -3.4653   -10.8958     8.4675 Cl    349 CCL4  -0.0812 
1905 CL      -3.6492    -8.6461     6.7743 Cl    349 CCL4  -0.0812 
1906 CL      -1.7641   -10.9467     6.0803 Cl    349 CCL4  -0.0812 
1907 CL       0.4998   -14.9687     9.5638 Cl    350 CCL4  -0.0812 
1908 C       -0.5143   -13.7294    10.2877 C.3   350 CCL4   0.3246 
1909 CL      -0.1850   -12.2043     9.4441 Cl    350 CCL4  -0.0812 
1910 CL       0.1066   -13.4854    12.0058 Cl    350 CCL4  -0.0812 
1911 CL      -2.1898   -14.2559    10.2604 Cl    350 CCL4  -0.0812 
1912 CL     -29.7915    -9.5406    13.4776 Cl    351 CCL4  -0.0812 
1913 C      -30.1207   -11.1682    12.8209 C.3   351 CCL4   0.3246 
1914 CL     -31.3716   -12.0071    13.7073 Cl    351 CCL4  -0.0812 
1915 CL     -28.7284   -12.1711    13.0546 Cl    351 CCL4  -0.0812 
1916 CL     -30.5336   -10.9194    11.0702 Cl    351 CCL4  -0.0812 
1917 CL      -3.3878     4.1368    11.9326 Cl    352 CCL4  -0.0812 
1918 C       -4.7447     3.3740    12.8220 C.3   352 CCL4   0.3246 
1919 CL      -6.2636     3.9566    12.0597 Cl    352 CCL4  -0.0812 
1920 CL      -4.7357     3.9654    14.4725 Cl    352 CCL4  -0.0812 
1921 CL      -4.4764     1.6366    12.7269 Cl    352 CCL4  -0.0812 
1922 CL      -0.8880    25.6579    20.9481 Cl    353 CCL4  -0.0812 
1923 C       -0.4158    24.1920    19.9583 C.3   353 CCL4   0.3246 
1924 CL      -1.9598    23.6753    19.2055 Cl    353 CCL4  -0.0812 
1925 CL       0.3618    22.8718    20.9373 Cl    353 CCL4  -0.0812 
1926 CL       0.6636    24.7770    18.7011 Cl    353 CCL4  -0.0812 
1927 CL       4.8713   -11.9355    17.1077 Cl    354 CCL4  -0.0812 
1928 C        5.7722   -10.8627    18.1814 C.3   354 CCL4   0.3246 
1929 CL       6.9321    -9.7754    17.3729 Cl    354 CCL4  -0.0812 
1930 CL       6.7442   -11.9474    19.4294 Cl    354 CCL4  -0.0812 
1931 CL       4.6662    -9.8972    19.1611 Cl    354 CCL4  -0.0812 
1932 CL       3.7940    -8.6158    15.9261 Cl    355 CCL4  -0.0812 
1933 C        2.2200    -8.3382    16.7956 C.3   355 CCL4   0.3246 
1934 CL       2.4932    -7.3902    18.2279 Cl    355 CCL4  -0.0812 
1935 CL       1.5187    -9.9554    17.2411 Cl    355 CCL4  -0.0812 
1936 CL       1.1901    -7.4562    15.7438 Cl    355 CCL4  -0.0812 
1937 CL       8.8026   -16.4618    15.4891 Cl    356 CCL4  -0.0812 
1938 C        7.2643   -16.0374    16.0776 C.3   356 CCL4   0.3246 
1939 CL       6.1824   -15.7186    14.6351 Cl    356 CCL4  -0.0812 
1940 CL       7.3540   -14.5875    17.0153 Cl    356 CCL4  -0.0812 
1941 CL       6.5295   -17.3204    17.0050 Cl    356 CCL4  -0.0812 
1942 CL      -1.8106   -12.4674    15.9477 Cl    357 CCL4  -0.0812 
1943 C       -2.9057   -13.4297    16.8827 C.3   357 CCL4   0.3246 
1944 CL      -4.5922   -13.1371    16.4172 Cl    357 CCL4  -0.0812 
1945 CL      -2.8291   -12.8688    18.5175 Cl    357 CCL4  -0.0812 
1946 CL      -2.4881   -15.1425    16.7724 Cl    357 CCL4  -0.0812 
1947 CL      18.7733     0.7818    19.0356 Cl    358 CCL4  -0.0812 
1948 C       19.2192     1.6284    17.5453 C.3   358 CCL4   0.3246 
1949 CL      19.8958     3.2217    18.0381 Cl    358 CCL4  -0.0812 
1950 CL      17.6240     1.8853    16.7956 Cl    358 CCL4  -0.0812 
1951 CL      20.2908     0.7840    16.3863 Cl    358 CCL4  -0.0812 
1952 CL       3.8367    -4.2535    10.3599 Cl    359 CCL4  -0.0812 
1953 C        3.1464    -5.3837    11.5563 C.3   359 CCL4   0.3246 
1954 CL       2.0103    -6.4790    10.5574 Cl    359 CCL4  -0.0812 
1955 CL       2.1936    -4.3349    12.7073 Cl    359 CCL4  -0.0812 
1956 CL       4.3152    -6.4527    12.3206 Cl    359 CCL4  -0.0812 
1957 CL       3.1404    -0.2512    17.7415 Cl    360 CCL4  -0.0812 
1958 C        2.7523    -0.5668    15.9846 C.3   360 CCL4   0.3246 
1959 CL       1.5533    -1.9882    15.9678 Cl    360 CCL4  -0.0812 
1960 CL       4.2955    -1.1540    15.2216 Cl    360 CCL4  -0.0812 
1961 CL       2.1083     0.8145    15.2348 Cl    360 CCL4  -0.0812 
1962 CL      -0.7733    -1.5080    13.1573 Cl    361 CCL4  -0.0812 
1963 C       -1.8980    -2.2991    14.2537 C.3   361 CCL4   0.3246 
1964 CL      -1.4989    -3.9804    14.5099 Cl    361 CCL4  -0.0812 
1965 CL      -3.5422    -2.1767    13.5072 Cl    361 CCL4  -0.0812 
1966 CL      -1.9069    -1.5392    15.8781 Cl    361 CCL4  -0.0812 
1967 CL      13.8855    -4.9712     6.3281 Cl    362 CCL4  -0.0812 
1968 C       13.8223    -3.5500     5.2543 C.3   362 CCL4   0.3246 
1969 CL      14.8152    -3.7246     3.8133 Cl    362 CCL4  -0.0812 
1970 CL      14.5105    -2.2149     6.3203 Cl    362 CCL4  -0.0812 
1971 CL      12.2039    -3.2139     4.8050 Cl    362 CCL4  -0.0812 
1972 CL       3.9541    -1.2759     8.7947 Cl    363 CCL4  -0.0812 
1973 C        2.9626    -0.4456    10.0737 C.3   363 CCL4   0.3246 
1974 CL       3.0404    -1.1237    11.6712 Cl    363 CCL4  -0.0812 
1975 CL       1.2368    -0.3503     9.6908 Cl    363 CCL4  -0.0812 
1976 CL       3.5727     1.2499    10.1083 Cl    363 CCL4  -0.0812 
1977 CL      17.3771    -1.3669     4.9632 Cl    364 CCL4  -0.0812 
1978 C       17.9890    -0.0943     3.9026 C.3   364 CCL4   0.3246 
1979 CL      19.4925    -0.6305     3.1235 Cl    364 CCL4  -0.0812 
1980 CL      18.4069     1.4348     4.7415 Cl    364 CCL4  -0.0812 
1981 CL      16.7760     0.1763     2.6221 Cl    364 CCL4  -0.0812 
1982 CL       5.4047    -2.8233     3.3825 Cl    365 CCL4  -0.0812 
1983 C        4.7675    -1.7348     4.6712 C.3   365 CCL4   0.3246 
1984 CL       3.4451    -2.4566     5.6538 Cl    365 CCL4  -0.0812 
1985 CL       4.2216    -0.2839     3.8440 Cl    365 CCL4  -0.0812 
1986 CL       6.1237    -1.2036     5.6231 Cl    365 CCL4  -0.0812 
1987 CL      -0.8784    -8.0205     4.6658 Cl    366 CCL4  -0.0812 
1988 C       -0.3662    -6.5686     3.9040 C.3   366 CCL4   0.3246 
1989 CL      -0.5665    -5.2251     4.9856 Cl    366 CCL4  -0.0812 
1990 CL      -1.2116    -6.1587     2.4298 Cl    366 CCL4  -0.0812 
1991 CL       1.4203    -6.6036     3.5885 Cl    366 CCL4  -0.0812 
1992 CL      -0.4101    -0.7533     5.4122 Cl    367 CCL4  -0.0812 
1993 C       -0.4645    -1.3295     3.7681 C.3   367 CCL4   0.3246 
1994 CL      -0.3579    -0.0196     2.5763 Cl    367 CCL4  -0.0812 
1995 CL      -2.0066    -2.0801     3.6245 Cl    367 CCL4  -0.0812 
1996 CL       0.9281    -2.3613     3.4340 Cl    367 CCL4  -0.0812 
1997 CL      -3.4774     0.4799     7.1564 Cl    368 CCL4  -0.0812 
1998 C       -3.8799     0.3524     8.9653 C.3   368 CCL4   0.3246 
1999 CL      -4.6902    -1.2613     9.1518 Cl    368 CCL4  -0.0812 
2000 CL      -5.2039     1.5121     9.3037 Cl    368 CCL4  -0.0812 
2001 CL      -2.4414     0.3653     9.9223 Cl    368 CCL4  -0.0812 
2002 CL      -1.0808    -6.0629     8.9091 Cl    369 CCL4  -0.0812 
2003 C       -0.8201    -4.3504     8.8141 C.3   369 CCL4   0.3246 
2004 CL      -1.9421    -3.4956     7.8499 Cl    369 CCL4  -0.0812 
2005 CL       0.9034    -4.1528     8.0428 Cl    369 CCL4  -0.0812 
2006 CL      -0.5812    -3.6685    10.4726 Cl    369 CCL4  -0.0812 
2007 CL      -4.9428    -5.3308     7.3409 Cl    370 CCL4  -0.0812 
2008 C       -5.2741    -4.5624     5.7677 C.3   370 CCL4   0.3246 
2009 CL      -6.9132    -4.7631     5.2356 Cl    370 CCL4  -0.0812 
2010 CL      -4.2729    -5.2265     4.5146 Cl    370 CCL4  -0.0812 
2011 CL      -5.0490    -2.8351     5.9196 Cl    370 CCL4  -0.0812 
2012 CL      17.5075    -7.7628    16.1884 Cl    371 CCL4  -0.0812 
2013 C       16.5453    -6.9718    17.4499 C.3   371 CCL4   0.3246 
2014 CL      17.5768    -6.3563    18.7522 Cl    371 CCL4  -0.0812 
2015 CL      15.3299    -7.9536    18.1876 Cl    371 CCL4  -0.0812 
2016 CL      15.8356    -5.3710    16.6928 Cl    371 CCL4  -0.0812 
2017 CL      18.2775    -2.2419    14.8684 Cl    372 CCL4  -0.0812 
2018 C       17.4640    -1.6178    13.5125 C.3   372 CCL4   0.3246 
2019 CL      15.8836    -2.4375    13.4064 Cl    372 CCL4  -0.0812 
2020 CL      18.1925    -1.9355    12.0116 Cl    372 CCL4  -0.0812 
2021 CL      17.2451     0.0817    13.8092 Cl    372 CCL4  -0.0812 
2022 CL       7.6311    -8.0930     3.9736 Cl    373 CCL4  -0.0812 
2023 C        5.9295    -8.0349     3.6882 C.3   373 CCL4   0.3246 
2024 CL       5.2236    -9.4981     4.1471 Cl    373 CCL4  -0.0812 
2025 CL       5.5938    -7.5844     1.9483 Cl    373 CCL4  -0.0812 
2026 CL       5.2748    -6.6666     4.7050 Cl    373 CCL4  -0.0812 
2027 CL       4.7251    -3.4142    18.2212 Cl    374 CCL4  -0.0812 
2028 C        5.3827    -4.6274    17.0962 C.3   374 CCL4   0.3246 
2029 CL       4.2403    -5.0395    15.8467 Cl    374 CCL4  -0.0812 
2030 CL       5.8771    -6.0425    17.9296 Cl    374 CCL4  -0.0812 
2031 CL       6.7224    -3.9169    16.2168 Cl    374 CCL4  -0.0812 
2032 CL       6.4630     4.3646    19.2720 Cl    375 CCL4  -0.0812 
2033 C        6.5805     2.6040    19.1226 C.3   375 CCL4   0.3246 
2034 CL       8.1898     2.0901    19.5439 Cl    375 CCL4  -0.0812 
2035 CL       6.4999     2.1514    17.3904 Cl    375 CCL4  -0.0812 
2036 CL       5.4212     1.8264    20.1708 Cl    375 CCL4  -0.0812 
2037 CL      12.7843    -1.2020    17.4468 Cl    376 CCL4  -0.0812 
2038 C       14.4182    -0.8117    18.0307 C.3   376 CCL4   0.3246 
2039 CL      14.5345     0.9604    18.3381 Cl    376 CCL4  -0.0812 
2040 CL      15.6408    -1.3228    16.8139 Cl    376 CCL4  -0.0812 
2041 CL      14.7060    -1.5421    19.6147 Cl    376 CCL4  -0.0812 
2042 CL      -4.8402    -4.2241    20.5243 Cl    377 CCL4  -0.0812 
2043 C       -4.9311    -3.3615    18.9671 C.3   377 CCL4   0.3246 
2044 CL      -4.1028    -1.7206    18.9631 Cl    377 CCL4  -0.0812 
2045 CL      -6.6582    -2.8464    18.7927 Cl    377 CCL4  -0.0812 
2046 CL      -4.3337    -4.3273    17.5664 Cl    377 CCL4  -0.0812 
2047 CL      -3.7994    -7.7056    19.2942 Cl    378 CCL4  -0.0812 
2048 C       -2.7156    -8.3037    18.0252 C.3   378 CCL4   0.3246 
2049 CL      -3.6619    -9.6353    17.3211 Cl    378 CCL4  -0.0812 
2050 CL      -1.3835    -9.1557    18.8385 Cl    378 CCL4  -0.0812 
2051 CL      -2.2078    -7.0524    16.8574 Cl    378 CCL4  -0.0812 
2052 CL      11.7959    -6.1116     8.8537 Cl    379 CCL4  -0.0812 
2053 C       12.3269    -4.7642     9.8340 C.3   379 CCL4   0.3246 
2054 CL      12.0799    -3.1972     8.9362 Cl    379 CCL4  -0.0812 
2055 CL      14.0791    -4.9950    10.0924 Cl    379 CCL4  -0.0812 
2056 CL      11.3926    -4.7123    11.4072 Cl    379 CCL4  -0.0812 
2057 CL       9.9620   -11.9183    11.7481 Cl    380 CCL4  -0.0812 
2058 C        9.4119   -13.2903    12.7058 C.3   380 CCL4   0.3246 
2059 CL       8.4254   -12.7385    14.0711 Cl    380 CCL4  -0.0812 
2060 CL      10.8417   -14.0901    13.3074 Cl    380 CCL4  -0.0812 
2061 CL       8.3751   -14.3591    11.6386 Cl    380 CCL4  -0.0812 
2062 CL      14.8032    -9.8284     7.9457 Cl    381 CCL4  -0.0812 
2063 C       16.2750    -8.8704     7.8414 C.3   381 CCL4   0.3246 
2064 CL      17.7555    -9.8861     7.9761 Cl    381 CCL4  -0.0812 
2065 CL      16.3609    -7.5837     9.0252 Cl    381 CCL4  -0.0812 
2066 CL      16.3956    -8.0400     6.2411 Cl    381 CCL4  -0.0812 
2067 CL      13.8024   -15.1456    11.7003 Cl    382 CCL4  -0.0812 
2068 C       14.5256   -13.5629    11.7381 C.3   382 CCL4   0.3246 
2069 CL      14.8580   -13.1964    13.5258 Cl    382 CCL4  -0.0812 
2070 CL      13.3880   -12.2977    11.2135 Cl    382 CCL4  -0.0812 
2071 CL      16.0098   -13.3682    10.8090 Cl    382 CCL4  -0.0812 
2072 CL      15.4286    -6.3621    13.0121 Cl    383 CCL4  -0.0812 
2073 C       14.8904    -8.1230    12.9274 C.3   383 CCL4   0.3246 
2074 CL      13.4376    -8.1213    11.8585 Cl    383 CCL4  -0.0812 
2075 CL      14.5863    -8.7189    14.5510 Cl    383 CCL4  -0.0812 
2076 CL      16.2495    -9.1115    12.3243 Cl    383 CCL4  -0.0812 
2077 CL      15.4761    25.1104     4.9301 Cl    384 CCL4  -0.0812 
2078 C       14.2649    24.0380     4.0122 C.3   384 CCL4   0.3246 
2079 CL      14.0239    22.5333     4.9498 Cl    384 CCL4  -0.0812 
2080 CL      14.9852    23.6510     2.3987 Cl    384 CCL4  -0.0812 
2081 CL      12.7088    24.8826     3.9896 Cl    384 CCL4  -0.0812 
2082 CL      12.9040     0.0865     3.4206 Cl    385 CCL4  -0.0812 
2083 C       13.4522     1.6744     3.8206 C.3   385 CCL4   0.3246 
2084 CL      13.8291     2.6385     2.4448 Cl    385 CCL4  -0.0812 
2085 CL      14.7732     1.6338     4.9492 Cl    385 CCL4  -0.0812 
2086 CL      12.1503     2.5697     4.6539 Cl    385 CCL4  -0.0812 
2087 CL      10.7613   -12.4786     7.9222 Cl    386 CCL4  -0.0812 
2088 C       11.6289   -13.9633     7.9773 C.3   386 CCL4   0.3246 
2089 CL      11.1099   -15.2014     6.7647 Cl    386 CCL4  -0.0812 
2090 CL      11.2739   -14.7691     9.6614 Cl    386 CCL4  -0.0812 
2091 CL      13.4243   -13.8068     7.9344 Cl    386 CCL4  -0.0812 
2092 CL      11.1416     0.0870    13.5946 Cl    387 CCL4  -0.0812 
2093 C       12.7813     0.5281    13.0950 C.3   387 CCL4   0.3246 
2094 CL      13.7175     0.8912    14.4702 Cl    387 CCL4  -0.0812 
2095 CL      12.7049     2.0529    12.2013 Cl    387 CCL4  -0.0812 
2096 CL      13.3897    -0.8108    12.1364 Cl    387 CCL4  -0.0812 
2097 CL      13.0995    -8.6574     4.9791 Cl    388 CCL4  -0.0812 
2098 C       11.4146    -8.3508     4.5355 C.3   388 CCL4   0.3246 
2099 CL      10.3866    -9.1647     5.7247 Cl    388 CCL4  -0.0812 
2100 CL      10.9986    -8.9485     2.8930 Cl    388 CCL4  -0.0812 
2101 CL      10.8818    -6.6582     4.6342 Cl    388 CCL4  -0.0812 
2102 CL       8.5302     0.0561     7.6039 Cl    389 CCL4  -0.0812 
2103 C       10.2146     0.3077     8.0729 C.3   389 CCL4   0.3246 
2104 CL      10.5142    -0.3127     9.6907 Cl    389 CCL4  -0.0812 
2105 CL      10.3438     2.1317     8.0811 Cl    389 CCL4  -0.0812 
2106 CL      11.2118    -0.5043     6.7456 Cl    389 CCL4  -0.0812 
2107 CL      13.1936   -12.3837    17.1464 Cl    390 CCL4  -0.0812 
2108 C       11.9352   -11.2930    16.4997 C.3   390 CCL4   0.3246 
2109 CL      10.2290   -11.9969    17.0279 Cl    390 CCL4  -0.0812 
2110 CL      11.9557   -11.2211    14.7282 Cl    390 CCL4  -0.0812 
2111 CL      11.8640    -9.6875    17.2841 Cl    390 CCL4  -0.0812 
2112 CL       9.2075    -8.1703    15.5643 Cl    391 CCL4  -0.0812 
2113 C        8.5297    -7.8207    14.0009 C.3   391 CCL4   0.3246 
2114 CL       7.7112    -9.3181    13.5695 Cl    391 CCL4  -0.0812 
2115 CL       9.6640    -7.4093    12.6678 Cl    391 CCL4  -0.0812 
2116 CL       7.2895    -6.5375    14.0287 Cl    391 CCL4  -0.0812 
2117 CL      11.5590   -15.3409    18.0387 Cl    392 CCL4  -0.0812 
2118 C       13.0379   -16.0245    17.3493 C.3   392 CCL4   0.3246 
2119 CL      13.2525   -15.2618    15.7103 Cl    392 CCL4  -0.0812 
2120 CL      12.9334   -17.7761    17.2381 Cl    392 CCL4  -0.0812 
2121 CL      14.4497   -15.6369    18.3342 Cl    392 CCL4  -0.0812 
2122 CL       9.7776     4.9006    16.8457 Cl    393 CCL4  -0.0812 
2123 C       11.0479     3.6554    16.6951 C.3   393 CCL4   0.3246 
2124 CL      12.0297     3.6503    18.1932 Cl    393 CCL4  -0.0812 
2125 CL      11.9022     4.0409    15.1177 Cl    393 CCL4  -0.0812 
2126 CL      10.3315     2.0195    16.6045 Cl    393 CCL4  -0.0812 
2127 CL       8.1860    -6.4841     7.1124 Cl    394 CCL4  -0.0812 
2128 C        7.7608    -4.6862     6.7411 C.3   394 CCL4   0.3246 
2129 CL       8.6705    -3.5696     7.7520 Cl    394 CCL4  -0.0812 
2130 CL       6.0263    -4.4654     7.1598 Cl    394 CCL4  -0.0812 
2131 CL       8.1570    -4.3313     5.0760 Cl    394 CCL4  -0.0812 
2132 CL      12.8080    -3.6753    15.0605 Cl    395 CCL4  -0.0812 
2133 C       11.7903    -4.9374    15.8522 C.3   395 CCL4   0.3246 
2134 CL      12.1402    -5.0323    17.6099 Cl    395 CCL4  -0.0812 
2135 CL      12.1059    -6.5377    15.1686 Cl    395 CCL4  -0.0812 
2136 CL      10.0264    -4.6352    15.5152 Cl    395 CCL4  -0.0812 
2137 CL       7.0779    -1.7269    10.4427 Cl    396 CCL4  -0.0812 
2138 C        7.5102    -2.9926    11.5854 C.3   396 CCL4   0.3246 
2139 CL       6.2084    -2.9645    12.7277 Cl    396 CCL4  -0.0812 
2140 CL       9.0817    -2.6301    12.4819 Cl    396 CCL4  -0.0812 
2141 CL       7.7694    -4.5094    10.8104 Cl    396 CCL4  -0.0812 
2142 CL       7.3792     1.6938    11.6319 Cl    397 CCL4  -0.0812 
2143 C        7.0044     1.9007    13.3143 C.3   397 CCL4   0.3246 
2144 CL       7.9479     3.3246    13.8283 Cl    397 CCL4  -0.0812 
2145 CL       7.5115     0.4665    14.1897 Cl    397 CCL4  -0.0812 
2146 CL       5.3241     2.2046    13.6919 Cl    397 CCL4  -0.0812 
2147 CL      -5.0353    17.5781   -14.3457 Cl    398 CCL4  -0.0812 
2148 C       -5.2696    19.2196   -13.6815 C.3   398 CCL4   0.3246 
2149 CL      -6.7644    19.8465   -14.3898 Cl    398 CCL4  -0.0812 
2150 CL      -3.8466    20.2761   -13.9040 Cl    398 CCL4  -0.0812 
2151 CL      -5.4813    19.0088   -11.9181 Cl    398 CCL4  -0.0812 
2152 CL       6.6216    15.6239   -17.4865 Cl    399 CCL4  -0.0812 
2153 C        7.1229    15.6237   -15.8661 C.3   399 CCL4   0.3246 
2154 CL       6.7864    14.1281   -15.0813 Cl    399 CCL4  -0.0812 
2155 CL       6.5647    16.9791   -14.9799 Cl    399 CCL4  -0.0812 
2156 CL       8.9150    15.7502   -15.8883 Cl    399 CCL4  -0.0812 
2157 CL       4.5063     6.4543   -11.6989 Cl    400 CCL4  -0.0812 
2158 C        3.9085     7.4722   -13.0940 C.3   400 CCL4   0.3246 
2159 CL       2.6700     6.6934   -14.1766 Cl    400 CCL4  -0.0812 
2160 CL       5.2861     8.0330   -14.0931 Cl    400 CCL4  -0.0812 
2161 CL       3.1776     9.0109   -12.3535 Cl    400 CCL4  -0.0812 
2162 CL      -1.2253    17.9304   -12.4520 Cl    401 CCL4  -0.0812 
2163 C       -0.9391    16.1755   -12.3248 C.3   401 CCL4   0.3246 
2164 CL      -1.1839    15.6603   -10.6341 Cl    401 CCL4  -0.0812 
2165 CL       0.6000    15.5761   -12.8883 Cl    401 CCL4  -0.0812 
2166 CL      -2.1931    15.3623   -13.2927 Cl    401 CCL4  -0.0812 
2167 CL       4.2204    15.0128   -12.6193 Cl    402 CCL4  -0.0812 
2168 C        3.7119    13.2855   -12.4032 C.3   402 CCL4   0.3246 
2169 CL       5.1390    12.3421   -11.9390 Cl    402 CCL4  -0.0812 
2170 CL       3.0508    12.6028   -13.8556 Cl    402 CCL4  -0.0812 
2171 CL       2.6163    13.1701   -10.9522 Cl    402 CCL4  -0.0812 
2172 CL      -0.8852     7.1351   -16.5159 Cl    403 CCL4  -0.0812 
2173 C       -2.6666     6.6092   -16.3666 C.3   403 CCL4   0.3246 
2174 CL      -2.6820     4.9161   -16.1603 Cl    403 CCL4  -0.0812 
2175 CL      -3.6359     7.0409   -17.8543 Cl    403 CCL4  -0.0812 
2176 CL      -3.3280     7.5391   -14.9437 Cl    403 CCL4  -0.0812 
2177 CL       3.3041     7.0462    -8.6121 Cl    404 CCL4  -0.0812 
2178 C        2.8032     5.4103    -8.2567 C.3   404 CCL4   0.3246 
2179 CL       4.0357     4.2798    -8.7999 Cl    404 CCL4  -0.0812 
2180 CL       1.3658     5.0011    -9.2109 Cl    404 CCL4  -0.0812 
2181 CL       2.4737     5.2474    -6.5703 Cl    404 CCL4  -0.0812 
2182 CL      -0.3730     7.7695   -12.6740 Cl    405 CCL4  -0.0812 
2183 C       -1.1170     8.2601   -11.1227 C.3   405 CCL4   0.3246 
2184 CL       0.1070     8.7488   -10.0500 Cl    405 CCL4  -0.0812 
2185 CL      -1.9939     6.8466   -10.5068 Cl    405 CCL4  -0.0812 
2186 CL      -2.3075     9.6028   -11.4276 Cl    405 CCL4  -0.0812 
2187 CL      -5.4266    16.7845     3.3510 Cl    406 CCL4  -0.0812 
2188 C       -4.7244    15.7867     1.9951 C.3   406 CCL4   0.3246 
2189 CL      -3.3406    14.9507     2.6694 Cl    406 CCL4  -0.0812 
2190 CL      -4.1695    16.9638     0.8248 Cl    406 CCL4  -0.0812 
2191 CL      -5.8407    14.6188     1.3837 Cl    406 CCL4  -0.0812 
2192 CL       5.8514    12.4859    21.5953 Cl    407 CCL4  -0.0812 
2193 C        5.6039    10.9152    22.3611 C.3   407 CCL4   0.3246 
2194 CL       4.2251    10.9514    23.4445 Cl    407 CCL4  -0.0812 
2195 CL       7.0610    10.4292    23.3062 Cl    407 CCL4  -0.0812 
2196 CL       5.3812     9.6351    21.0821 Cl    407 CCL4  -0.0812 
2197 CL       2.6487    17.1004    21.6474 Cl    408 CCL4  -0.0812 
2198 C        2.2626    15.6452    22.6954 C.3   408 CCL4   0.3246 
2199 CL       0.5590    15.6706    23.3059 Cl    408 CCL4  -0.0812 
2200 CL       3.3890    15.5007    24.0940 Cl    408 CCL4  -0.0812 
2201 CL       2.6459    14.2418    21.6664 Cl    408 CCL4  -0.0812 
2202 CL       0.4998    10.0313   -15.4362 Cl    409 CCL4  -0.0812 
2203 C       -0.5143    11.2706   -14.7123 C.3   409 CCL4   0.3246 
2204 CL      -0.1850    12.7957   -15.5559 Cl    409 CCL4  -0.0812 
2205 CL       0.1066    11.5146   -12.9942 Cl    409 CCL4  -0.0812 
2206 CL      -2.1898    10.7441   -14.7396 Cl    409 CCL4  -0.0812 
2207 CL     -29.7915    15.4594   -11.5224 Cl    410 CCL4  -0.0812 
2208 C      -30.1207    13.8318   -12.1791 C.3   410 CCL4   0.3246 
2209 CL     -31.3716    12.9929   -11.2927 Cl    410 CCL4  -0.0812 
2210 CL     -28.7284    12.8289   -11.9454 Cl    410 CCL4  -0.0812 
2211 CL     -30.5336    14.0806   -13.9298 Cl    410 CCL4  -0.0812 
2212 CL      20.0125     7.4391   -11.7237 Cl    411 CCL4  -0.0812 
2213 C       18.5470     8.3149   -12.2484 C.3   411 CCL4   0.3246 
2214 CL      19.1120     9.5587   -13.4011 Cl    411 CCL4  -0.0812 
2215 CL      17.6547     9.0637   -10.9496 Cl    411 CCL4  -0.0812 
2216 CL      17.4455     7.2286   -13.2336 Cl    411 CCL4  -0.0812 
2217 CL      17.9377    14.6556    -6.7267 Cl    412 CCL4  -0.0812 
2218 C       17.1810    13.0877    -6.2468 C.3   412 CCL4   0.3246 
2219 CL      17.0729    12.0341    -7.7021 Cl    412 CCL4  -0.0812 
2220 CL      15.5011    13.4301    -5.6124 Cl    412 CCL4  -0.0812 
2221 CL      18.1273    12.1832    -4.9489 Cl    412 CCL4  -0.0812 
2222 CL       6.0741    14.8029    -1.9656 Cl    413 CCL4  -0.0812 
2223 C        6.8181    14.1043    -0.6119 C.3   413 CCL4   0.3246 
2224 CL       5.7948    14.1375     0.8377 Cl    413 CCL4  -0.0812 
2225 CL       8.1931    15.1243    -0.1055 Cl    413 CCL4  -0.0812 
2226 CL       7.3674    12.4749    -0.9432 Cl    413 CCL4  -0.0812 
2227 CL      20.2531     8.9533    -5.7176 Cl    414 CCL4  -0.0812 
2228 C       19.2905     7.5747    -6.4377 C.3   414 CCL4   0.3246 
2229 CL      20.1335     6.9311    -7.8915 Cl    414 CCL4  -0.0812 
2230 CL      17.7225     8.2063    -6.9165 Cl    414 CCL4  -0.0812 
2231 CL      18.9692     6.1914    -5.2760 Cl    414 CCL4  -0.0812 
2232 CL       4.8713    13.0645    -7.8923 Cl    415 CCL4  -0.0812 
2233 C        5.7722    14.1373    -6.8186 C.3   415 CCL4   0.3246 
2234 CL       6.9321    15.2246    -7.6271 Cl    415 CCL4  -0.0812 
2235 CL       6.7442    13.0526    -5.5706 Cl    415 CCL4  -0.0812 
2236 CL       4.6662    15.1028    -5.8389 Cl    415 CCL4  -0.0812 
2237 CL       3.7940    16.3842    -9.0739 Cl    416 CCL4  -0.0812 
2238 C        2.2200    16.6618    -8.2044 C.3   416 CCL4   0.3246 
2239 CL       2.4932    17.6098    -6.7721 Cl    416 CCL4  -0.0812 
2240 CL       1.5187    15.0446    -7.7589 Cl    416 CCL4  -0.0812 
2241 CL       1.1901    17.5438    -9.2562 Cl    416 CCL4  -0.0812 
2242 CL       8.8026     8.5382    -9.5109 Cl    417 CCL4  -0.0812 
2243 C        7.2643     8.9626    -8.9224 C.3   417 CCL4   0.3246 
2244 CL       6.1824     9.2814   -10.3649 Cl    417 CCL4  -0.0812 
2245 CL       7.3540    10.4125    -7.9847 Cl    417 CCL4  -0.0812 
2246 CL       6.5295     7.6796    -7.9950 Cl    417 CCL4  -0.0812 
2247 CL       5.6195     9.8877    -3.1007 Cl    418 CCL4  -0.0812 
2248 C        4.5891     8.9062    -4.0627 C.3   418 CCL4   0.3246 
2249 CL       4.1105     9.7774    -5.5348 Cl    418 CCL4  -0.0812 
2250 CL       3.1787     8.5495    -3.0929 Cl    418 CCL4  -0.0812 
2251 CL       5.3884     7.4232    -4.4765 Cl    418 CCL4  -0.0812 
2252 CL      10.1787    17.4769    -5.2418 Cl    419 CCL4  -0.0812 
2253 C       10.7760    16.2745    -4.1352 C.3   419 CCL4   0.3246 
2254 CL      10.0180    14.7049    -4.5394 Cl    419 CCL4  -0.0812 
2255 CL      10.3143    16.6817    -2.4326 Cl    419 CCL4  -0.0812 
2256 CL      12.5397    16.0648    -4.1483 Cl    419 CCL4  -0.0812 
2257 CL      16.2686    17.3217    -2.8361 Cl    420 CCL4  -0.0812 
2258 C       17.6178    16.5160    -1.9361 C.3   420 CCL4   0.3246 
2259 CL      19.2156    16.9064    -2.7587 Cl    420 CCL4  -0.0812 
2260 CL      17.3667    14.7575    -1.9988 Cl    420 CCL4  -0.0812 
2261 CL      17.6241    17.2019    -0.2712 Cl    420 CCL4  -0.0812 
2262 CL      -1.8106    12.5326    -9.0523 Cl    421 CCL4  -0.0812 
2263 C       -2.9057    11.5703    -8.1173 C.3   421 CCL4   0.3246 
2264 CL      -4.5922    11.8629    -8.5828 Cl    421 CCL4  -0.0812 
2265 CL      -2.8291    12.1312    -6.4825 Cl    421 CCL4  -0.0812 
2266 CL      -2.4881     9.8575    -8.2276 Cl    421 CCL4  -0.0812 
2267 CL      14.7038     6.5322   -10.4813 Cl    422 CCL4  -0.0812 
2268 C       15.7061     5.0262   -10.2823 C.3   422 CCL4   0.3246 
2269 CL      15.0487     4.2783    -8.7935 Cl    422 CCL4  -0.0812 
2270 CL      17.4272     5.4789    -9.8208 Cl    422 CCL4  -0.0812 
2271 CL      15.6368     4.0444   -11.7882 Cl    422 CCL4  -0.0812 
2272 CL       3.8367    20.7465   -14.6401 Cl    423 CCL4  -0.0812 
2273 C        3.1464    19.6163   -13.4437 C.3   423 CCL4   0.3246 
2274 CL       2.0103    18.5210   -14.4426 Cl    423 CCL4  -0.0812 
2275 CL       2.1936    20.6651   -12.2927 Cl    423 CCL4  -0.0812 
2276 CL       4.3152    18.5473   -12.6794 Cl    423 CCL4  -0.0812 
2277 CL      19.2628    20.3807    -1.0527 Cl    424 CCL4  -0.0812 
2278 C       19.1807    21.1423     0.5014 C.3   424 CCL4   0.3246 
2279 CL      18.3610    20.0798     1.7043 Cl    424 CCL4  -0.0812 
2280 CL      18.2970    22.6246     0.3654 Cl    424 CCL4  -0.0812 
2281 CL      20.8453    21.4297     1.0972 Cl    424 CCL4  -0.0812 
2282 CL      -1.0808    18.9371   -16.0909 Cl    425 CCL4  -0.0812 
2283 C       -0.8201    20.6496   -16.1859 C.3   425 CCL4   0.3246 
2284 CL      -1.9421    21.5044   -17.1501 Cl    425 CCL4  -0.0812 
2285 CL       0.9034    20.8472   -16.9572 Cl    425 CCL4  -0.0812 
2286 CL      -0.5812    21.3315   -14.5274 Cl    425 CCL4  -0.0812 
2287 CL      17.5075    17.2372    -8.8116 Cl    426 CCL4  -0.0812 
2288 C       16.5453    18.0282    -7.5501 C.3   426 CCL4   0.3246 
2289 CL      17.5768    18.6437    -6.2478 Cl    426 CCL4  -0.0812 
2290 CL      15.3299    17.0464    -6.8124 Cl    426 CCL4  -0.0812 
2291 CL      15.8356    19.6290    -8.3072 Cl    426 CCL4  -0.0812 
2292 CL       4.7251    21.5858    -6.7788 Cl    427 CCL4  -0.0812 
2293 C        5.3827    20.3726    -7.9038 C.3   427 CCL4   0.3246 
2294 CL       4.2403    19.9605    -9.1533 Cl    427 CCL4  -0.0812 
2295 CL       5.8771    18.9575    -7.0704 Cl    427 CCL4  -0.0812 
2296 CL       6.7224    21.0831    -8.7832 Cl    427 CCL4  -0.0812 
2297 CL       0.2440    18.4692    -1.6976 Cl    428 CCL4  -0.0812 
2298 C       -1.2800    18.0596    -2.4769 C.3   428 CCL4   0.3246 
2299 CL      -2.6734    18.8043    -1.7544 Cl    428 CCL4  -0.0812 
2300 CL      -1.4385    16.2781    -2.5016 Cl    428 CCL4  -0.0812 
2301 CL      -1.1971    18.5595    -4.1374 Cl    428 CCL4  -0.0812 
2302 CL       6.3262    18.2712    -1.1547 Cl    429 CCL4  -0.0812 
2303 C        5.6924    18.4038    -2.8135 C.3   429 CCL4   0.3246 
2304 CL       6.7018    17.5904    -4.0001 Cl    429 CCL4  -0.0812 
2305 CL       5.4815    20.2009    -3.2684 Cl    429 CCL4  -0.0812 
2306 CL       4.1312    17.6532    -2.9139 Cl    429 CCL4  -0.0812 
2307 CL      -3.7994    17.2944    -5.7058 Cl    430 CCL4  -0.0812 
2308 C       -2.7156    16.6963    -6.9748 C.3   430 CCL4   0.3246 
2309 CL      -3.6619    15.3647    -7.6789 Cl    430 CCL4  -0.0812 
2310 CL      -1.3835    15.8443    -6.1615 Cl    430 CCL4  -0.0812 
2311 CL      -2.2078    17.9476    -8.1426 Cl    430 CCL4  -0.0812 
2312 CL       9.5227    20.7735    -1.5762 Cl    431 CCL4  -0.0812 
2313 C        9.6339    20.5906     0.1624 C.3   431 CCL4   0.3246 
2314 CL      11.3150    21.2708     0.5953 Cl    431 CCL4  -0.0812 
2315 CL       9.5263    18.8347     0.5545 Cl    431 CCL4  -0.0812 
2316 CL       8.4399    21.5262     1.0421 Cl    431 CCL4  -0.0812 
2317 CL      11.7959    18.8884   -16.1463 Cl    432 CCL4  -0.0812 
2318 C       12.3269    20.2358   -15.1660 C.3   432 CCL4   0.3246 
2319 CL      12.0799    21.8028   -16.0638 Cl    432 CCL4  -0.0812 
2320 CL      14.0791    20.0050   -14.9076 Cl    432 CCL4  -0.0812 
2321 CL      11.3926    20.2877   -13.5928 Cl    432 CCL4  -0.0812 
2322 CL       9.9620    13.0817   -13.2519 Cl    433 CCL4  -0.0812 
2323 C        9.4119    11.7097   -12.2942 C.3   433 CCL4   0.3246 
2324 CL       8.4254    12.2615   -10.9289 Cl    433 CCL4  -0.0812 
2325 CL      10.8417    10.9099   -11.6926 Cl    433 CCL4  -0.0812 
2326 CL       8.3751    10.6409   -13.3614 Cl    433 CCL4  -0.0812 
2327 CL      15.0548    14.1490     2.0693 Cl    434 CCL4  -0.0812 
2328 C       15.8529    12.8496     2.9852 C.3   434 CCL4   0.3246 
2329 CL      14.4772    12.0137     3.7084 Cl    434 CCL4  -0.0812 
2330 CL      16.8724    13.6313     4.1341 Cl    434 CCL4  -0.0812 
2331 CL      16.6783    11.7846     1.9381 Cl    434 CCL4  -0.0812 
2332 CL      14.8032    15.1716    22.9457 Cl    435 CCL4  -0.0812 
2333 C       16.2750    16.1296    22.8414 C.3   435 CCL4   0.3246 
2334 CL      17.7555    15.1139    22.9761 Cl    435 CCL4  -0.0812 
2335 CL      16.3609    17.4163    24.0252 Cl    435 CCL4  -0.0812 
2336 CL      16.3956    16.9600    21.2411 Cl    435 CCL4  -0.0812 
2337 CL      13.8024     9.8544   -13.2997 Cl    436 CCL4  -0.0812 
2338 C       14.5256    11.4371   -13.2619 C.3   436 CCL4   0.3246 
2339 CL      14.8580    11.8036   -11.4742 Cl    436 CCL4  -0.0812 
2340 CL      13.3880    12.7023   -13.7865 Cl    436 CCL4  -0.0812 
2341 CL      16.0098    11.6318   -14.1910 Cl    436 CCL4  -0.0812 
2342 CL      15.4286    18.6379   -11.9879 Cl    437 CCL4  -0.0812 
2343 C       14.8904    16.8770   -12.0726 C.3   437 CCL4   0.3246 
2344 CL      13.4376    16.8787   -13.1415 Cl    437 CCL4  -0.0812 
2345 CL      14.5863    16.2811   -10.4490 Cl    437 CCL4  -0.0812 
2346 CL      16.2495    15.8885   -12.6757 Cl    437 CCL4  -0.0812 
2347 CL      10.7613    12.5214   -17.0778 Cl    438 CCL4  -0.0812 
2348 C       11.6289    11.0367   -17.0227 C.3   438 CCL4   0.3246 
2349 CL      11.1099     9.7986   -18.2353 Cl    438 CCL4  -0.0812 
2350 CL      11.2739    10.2309   -15.3386 Cl    438 CCL4  -0.0812 
2351 CL      13.4243    11.1932   -17.0656 Cl    438 CCL4  -0.0812 
2352 CL       9.2774     7.4350   -15.0494 Cl    439 CCL4  -0.0812 
2353 C        9.6516     6.6167   -13.5344 C.3   439 CCL4   0.3246 
2354 CL      10.9477     7.4338   -12.6826 Cl    439 CCL4  -0.0812 
2355 CL      10.1914     4.9257   -13.8299 Cl    439 CCL4  -0.0812 
2356 CL       8.1672     6.4121   -12.4522 Cl    439 CCL4  -0.0812 
2357 CL      13.5036     4.2819   -16.7779 Cl    440 CCL4  -0.0812 
2358 C       13.5875     5.7708   -15.8400 C.3   440 CCL4   0.3246 
2359 CL      13.5897     5.5712   -14.1390 Cl    440 CCL4  -0.0812 
2360 CL      12.3024     6.8835   -16.3130 Cl    440 CCL4  -0.0812 
2361 CL      15.0072     6.8339   -16.3564 Cl    440 CCL4  -0.0812 
2362 CL      13.1936    12.6163    -7.8536 Cl    441 CCL4  -0.0812 
2363 C       11.9352    13.7070    -8.5003 C.3   441 CCL4   0.3246 
2364 CL      10.2290    13.0031    -7.9721 Cl    441 CCL4  -0.0812 
2365 CL      11.9557    13.7789   -10.2718 Cl    441 CCL4  -0.0812 
2366 CL      11.8640    15.3125    -7.7159 Cl    441 CCL4  -0.0812 
2367 CL       9.2075    16.8297    -9.4357 Cl    442 CCL4  -0.0812 
2368 C        8.5297    17.1793   -10.9991 C.3   442 CCL4   0.3246 
2369 CL       7.7112    15.6819   -11.4305 Cl    442 CCL4  -0.0812 
2370 CL       9.6640    17.5907   -12.3322 Cl    442 CCL4  -0.0812 
2371 CL       7.2895    18.4625   -10.9713 Cl    442 CCL4  -0.0812 
2372 CL      11.5590     9.6591    -6.9613 Cl    443 CCL4  -0.0812 
2373 C       13.0379     8.9755    -7.6507 C.3   443 CCL4   0.3246 
2374 CL      13.2525     9.7382    -9.2897 Cl    443 CCL4  -0.0812 
2375 CL      12.9334     7.2239    -7.7619 Cl    443 CCL4  -0.0812 
2376 CL      14.4497     9.3631    -6.6658 Cl    443 CCL4  -0.0812 
2377 CL      14.0539     4.0057    -3.5491 Cl    444 CCL4  -0.0812 
2378 C       15.5372     4.8145    -4.1444 C.3   444 CCL4   0.3246 
2379 CL      15.0085     6.0313    -5.3431 Cl    444 CCL4  -0.0812 
2380 CL      16.6397     3.6173    -4.8151 Cl    444 CCL4  -0.0812 
2381 CL      16.3595     5.4830    -2.7464 Cl    444 CCL4  -0.0812 
2382 CL      -3.4609    11.2141    -2.7853 Cl    445 CCL4  -0.0812 
2383 C       -3.8890    12.2156    -1.4113 C.3   445 CCL4   0.3246 
2384 CL      -4.2609    13.8935    -1.8433 Cl    445 CCL4  -0.0812 
2385 CL      -5.4545    11.6452    -0.7066 Cl    445 CCL4  -0.0812 
2386 CL      -2.6462    12.1038    -0.1325 Cl    445 CCL4  -0.0812 
2387 CL      13.0486    18.5325     1.8655 Cl    446 CCL4  -0.0812 
2388 C       14.6461    18.1640     1.1870 C.3   446 CCL4   0.3246 
2389 CL      15.2940    19.6617     0.3319 Cl    446 CCL4  -0.0812 
2390 CL      14.4584    16.8434     0.0561 Cl    446 CCL4  -0.0812 
2391 CL      15.7986    17.6719     2.5365 Cl    446 CCL4  -0.0812 
2392 CL      13.3888    11.4985     0.2732 Cl    447 CCL4  -0.0812 
2393 C       12.3588    12.2739    -0.9819 C.3   447 CCL4   0.3246 
2394 CL      11.3086    11.0433    -1.6816 Cl    447 CCL4  -0.0812 
2395 CL      13.3134    13.0766    -2.2306 Cl    447 CCL4  -0.0812 
2396 CL      11.3281    13.4706    -0.0281 Cl    447 CCL4  -0.0812 
2397 CL       8.7880     7.6714    -2.9912 Cl    448 CCL4  -0.0812 
2398 C        9.9024     7.0378    -4.2935 C.3   448 CCL4   0.3246 
2399 CL      10.1090     5.3053    -4.0896 Cl    448 CCL4  -0.0812 
2400 CL      11.3477     7.9405    -3.9311 Cl    448 CCL4  -0.0812 
2401 CL       9.2464     7.5375    -5.8562 Cl    448 CCL4  -0.0812 
2402 CL      16.0857    11.0127    -1.6260 Cl    449 CCL4  -0.0812 
2403 C       16.0802     9.3656    -2.0491 C.3   449 CCL4   0.3246 
2404 CL      16.5443     8.4434    -0.5507 Cl    449 CCL4  -0.0812 
2405 CL      17.2342     8.9925    -3.2572 Cl    449 CCL4  -0.0812 
2406 CL      14.4798     8.8709    -2.4624 Cl    449 CCL4  -0.0812 
2407 CL      11.3441     7.7570     0.4336 Cl    450 CCL4  -0.0812 
2408 C       12.0127     6.0994     0.1783 C.3   450 CCL4   0.3246 
2409 CL      13.5852     6.1901    -0.5695 Cl    450 CCL4  -0.0812 
2410 CL      10.9546     5.1500    -0.8930 Cl    450 CCL4  -0.0812 
2411 CL      12.2808     5.4040     1.8369 Cl    450 CCL4  -0.0812 
2412 CL      14.9312    20.2408    -4.2744 Cl    451 CCL4  -0.0812 
2413 C       13.5842    20.5830    -3.2427 C.3   451 CCL4   0.3246 
2414 CL      12.2536    21.2942    -4.1692 Cl    451 CCL4  -0.0812 
2415 CL      14.0898    22.0181    -2.3081 Cl    451 CCL4  -0.0812 
2416 CL      12.8944    19.2429    -2.2100 Cl    451 CCL4  -0.0812 
2417 CL       8.1860    18.5159    22.1124 Cl    452 CCL4  -0.0812 
2418 C        7.7608    20.3138    21.7411 C.3   452 CCL4   0.3246 
2419 CL       8.6705    21.4304    22.7520 Cl    452 CCL4  -0.0812 
2420 CL       6.0263    20.5346    22.1598 Cl    452 CCL4  -0.0812 
2421 CL       8.1570    20.6687    20.0760 Cl    452 CCL4  -0.0812 
2422 CL      12.8080    21.3247    -9.9395 Cl    453 CCL4  -0.0812 
2423 C       11.7903    20.0626    -9.1478 C.3   453 CCL4   0.3246 
2424 CL      12.1402    19.9677    -7.3901 Cl    453 CCL4  -0.0812 
2425 CL      12.1059    18.4623    -9.8314 Cl    453 CCL4  -0.0812 
2426 CL      10.0264    20.3648    -9.4848 Cl    453 CCL4  -0.0812 
2427 CL      -5.0353    17.5781    10.6543 Cl    454 CCL4  -0.0812 
2428 C       -5.2696    19.2196    11.3185 C.3   454 CCL4   0.3246 
2429 CL      -6.7644    19.8465    10.6102 Cl    454 CCL4  -0.0812 
2430 CL      -3.8466    20.2761    11.0960 Cl    454 CCL4  -0.0812 
2431 CL      -5.4813    19.0088    13.0819 Cl    454 CCL4  -0.0812 
2432 CL       6.6216    15.6239     7.5135 Cl    455 CCL4  -0.0812 
2433 C        7.1229    15.6237     9.1339 C.3   455 CCL4   0.3246 
2434 CL       6.7864    14.1281     9.9187 Cl    455 CCL4  -0.0812 
2435 CL       6.5647    16.9791    10.0201 Cl    455 CCL4  -0.0812 
2436 CL       8.9150    15.7502     9.1117 Cl    455 CCL4  -0.0812 
2437 CL       4.5063     6.4543    13.3011 Cl    456 CCL4  -0.0812 
2438 C        3.9085     7.4722    11.9060 C.3   456 CCL4   0.3246 
2439 CL       2.6700     6.6934    10.8234 Cl    456 CCL4  -0.0812 
2440 CL       5.2861     8.0330    10.9069 Cl    456 CCL4  -0.0812 
2441 CL       3.1776     9.0109    12.6465 Cl    456 CCL4  -0.0812 
2442 CL      -1.2253    17.9304    12.5480 Cl    457 CCL4  -0.0812 
2443 C       -0.9391    16.1755    12.6752 C.3   457 CCL4   0.3246 
2444 CL      -1.1839    15.6603    14.3659 Cl    457 CCL4  -0.0812 
2445 CL       0.6000    15.5761    12.1117 Cl    457 CCL4  -0.0812 
2446 CL      -2.1931    15.3623    11.7073 Cl    457 CCL4  -0.0812 
2447 CL       4.2204    15.0128    12.3807 Cl    458 CCL4  -0.0812 
2448 C        3.7119    13.2855    12.5968 C.3   458 CCL4   0.3246 
2449 CL       5.1390    12.3421    13.0610 Cl    458 CCL4  -0.0812 
2450 CL       3.0508    12.6028    11.1444 Cl    458 CCL4  -0.0812 
2451 CL       2.6163    13.1701    14.0478 Cl    458 CCL4  -0.0812 
2452 CL       3.3041     7.0462    16.3879 Cl    459 CCL4  -0.0812 
2453 C        2.8032     5.4103    16.7433 C.3   459 CCL4   0.3246 
2454 CL       4.0357     4.2798    16.2001 Cl    459 CCL4  -0.0812 
2455 CL       1.3658     5.0011    15.7891 Cl    459 CCL4  -0.0812 
2456 CL       2.4737     5.2474    18.4297 Cl    459 CCL4  -0.0812 
2457 CL      -0.3730     7.7695    12.3260 Cl    460 CCL4  -0.0812 
2458 C       -1.1170     8.2601    13.8773 C.3   460 CCL4   0.3246 
2459 CL       0.1070     8.7488    14.9500 Cl    460 CCL4  -0.0812 
2460 CL      -1.9939     6.8466    14.4932 Cl    460 CCL4  -0.0812 
2461 CL      -2.3075     9.6028    13.5724 Cl    460 CCL4  -0.0812 
2462 CL      18.2398     5.6761     8.7143 Cl    461 CCL4  -0.0812 
2463 C       18.0712     4.9485     7.1002 C.3   461 CCL4   0.3246 
2464 CL      16.7084     3.7841     7.0039 Cl    461 CCL4  -0.0812 
2465 CL      19.6645     4.3161     6.6723 Cl    461 CCL4  -0.0812 
2466 CL      17.7259     6.3353     5.9953 Cl    461 CCL4  -0.0812 
2467 CL       8.6773    13.2108     2.8397 Cl    462 CCL4  -0.0812 
2468 C        9.6781    11.8847     3.5935 C.3   462 CCL4   0.3246 
2469 CL      10.0952    10.8060     2.2497 Cl    462 CCL4  -0.0812 
2470 CL       8.7418    11.0880     4.8310 Cl    462 CCL4  -0.0812 
2471 CL      11.1057    12.6137     4.3368 Cl    462 CCL4  -0.0812 
2472 CL       5.8514    12.4859     6.5953 Cl    463 CCL4  -0.0812 
2473 C        5.6039    10.9152     7.3611 C.3   463 CCL4   0.3246 
2474 CL       4.2251    10.9514     8.4445 Cl    463 CCL4  -0.0812 
2475 CL       7.0610    10.4292     8.3062 Cl    463 CCL4  -0.0812 
2476 CL       5.3812     9.6351     6.0821 Cl    463 CCL4  -0.0812 
2477 CL       2.6487    17.1004     6.6474 Cl    464 CCL4  -0.0812 
2478 C        2.2626    15.6452     7.6954 C.3   464 CCL4   0.3246 
2479 CL       0.5590    15.6706     8.3059 Cl    464 CCL4  -0.0812 
2480 CL       3.3890    15.5007     9.0940 Cl    464 CCL4  -0.0812 
2481 CL       2.6459    14.2418     6.6664 Cl    464 CCL4  -0.0812 
2482 CL      -4.5205    13.6258     5.8342 Cl    465 CCL4  -0.0812 
2483 C       -3.2752    14.5594     6.6702 C.3   465 CCL4   0.3246 
2484 CL      -3.4653    14.1042     8.4675 Cl    465 CCL4  -0.0812 
2485 CL      -3.6492    16.3539     6.7743 Cl    465 CCL4  -0.0812 
2486 CL      -1.7641    14.0533     6.0803 Cl    465 CCL4  -0.0812 
2487 CL       0.4998    10.0313     9.5638 Cl    466 CCL4  -0.0812 
2488 C       -0.5143    11.2706    10.2877 C.3   466 CCL4   0.3246 
2489 CL      -0.1850    12.7957     9.4441 Cl    466 CCL4  -0.0812 
2490 CL       0.1066    11.5146    12.0058 Cl    466 CCL4  -0.0812 
2491 CL      -2.1898    10.7441    10.2604 Cl    466 CCL4  -0.0812 
2492 CL     -29.7915    15.4594    13.4776 Cl    467 CCL4  -0.0812 
2493 C      -30.1207    13.8318    12.8209 C.3   467 CCL4   0.3246 
2494 CL     -31.3716    12.9929    13.7073 Cl    467 CCL4  -0.0812 
2495 CL     -28.7284    12.8289    13.0546 Cl    467 CCL4  -0.0812 
2496 CL     -30.5336    14.0806    11.0702 Cl    467 CCL4  -0.0812 
2497 CL      20.0125     7.4391    13.2763 Cl    468 CCL4  -0.0812 
2498 C       18.5470     8.3149    12.7516 C.3   468 CCL4   0.3246 
2499 CL      19.1120     9.5587    11.5989 Cl    468 CCL4  -0.0812 
2500 CL      17.6547     9.0637    14.0504 Cl    468 CCL4  -0.0812 
2501 CL      17.4455     7.2286    11.7664 Cl    468 CCL4  -0.0812 
2502 CL      17.5397     9.0842     8.1664 Cl    469 CCL4  -0.0812 
2503 C       18.0838    10.5934     7.4385 C.3   469 CCL4   0.3246 
2504 CL      19.3547    11.3740     8.4820 Cl    469 CCL4  -0.0812 
2505 CL      16.7717    11.8359     7.3434 Cl    469 CCL4  -0.0812 
2506 CL      18.7519    10.4824     5.8710 Cl    469 CCL4  -0.0812 
2507 CL      -0.8880     9.5028    20.9481 Cl    470 CCL4  -0.0812 
2508 C       -0.4158     8.0368    19.9583 C.3   470 CCL4   0.3246 
2509 CL      -1.9598     7.5202    19.2055 Cl    470 CCL4  -0.0812 
2510 CL       0.3618     6.7166    20.9373 Cl    470 CCL4  -0.0812 
2511 CL       0.6636     8.6218    18.7011 Cl    470 CCL4  -0.0812 
2512 CL       4.8713    13.0645    17.1077 Cl    471 CCL4  -0.0812 
2513 C        5.7722    14.1373    18.1814 C.3   471 CCL4   0.3246 
2514 CL       6.9321    15.2246    17.3729 Cl    471 CCL4  -0.0812 
2515 CL       6.7442    13.0526    19.4294 Cl    471 CCL4  -0.0812 
2516 CL       4.6662    15.1028    19.1611 Cl    471 CCL4  -0.0812 
2517 CL       3.7940    16.3842    15.9261 Cl    472 CCL4  -0.0812 
2518 C        2.2200    16.6618    16.7956 C.3   472 CCL4   0.3246 
2519 CL       2.4932    17.6098    18.2279 Cl    472 CCL4  -0.0812 
2520 CL       1.5187    15.0446    17.2411 Cl    472 CCL4  -0.0812 
2521 CL       1.1901    17.5438    15.7438 Cl    472 CCL4  -0.0812 
2522 CL       8.8026     8.5382    15.4891 Cl    473 CCL4  -0.0812 
2523 C        7.2643     8.9626    16.0776 C.3   473 CCL4   0.3246 
2524 CL       6.1824     9.2814    14.6351 Cl    473 CCL4  -0.0812 
2525 CL       7.3540    10.4125    17.0153 Cl    473 CCL4  -0.0812 
2526 CL       6.5295     7.6796    17.0050 Cl    473 CCL4  -0.0812 
2527 CL      -1.8106    12.5326    15.9477 Cl    474 CCL4  -0.0812 
2528 C       -2.9057    11.5703    16.8827 C.3   474 CCL4   0.3246 
2529 CL      -4.5922    11.8629    16.4172 Cl    474 CCL4  -0.0812 
2530 CL      -2.8291    12.1312    18.5175 Cl    474 CCL4  -0.0812 
2531 CL      -2.4881     9.8575    16.7724 Cl    474 CCL4  -0.0812 
2532 CL      14.7038     6.5322    14.5187 Cl    475 CCL4  -0.0812 
2533 C       15.7061     5.0262    14.7177 C.3   475 CCL4   0.3246 
2534 CL      15.0487     4.2783    16.2065 Cl    475 CCL4  -0.0812 
2535 CL      17.4272     5.4789    15.1792 Cl    475 CCL4  -0.0812 
2536 CL      15.6368     4.0444    13.2118 Cl    475 CCL4  -0.0812 
2537 CL       3.8367    20.7465    10.3599 Cl    476 CCL4  -0.0812 
2538 C        3.1464    19.6163    11.5563 C.3   476 CCL4   0.3246 
2539 CL       2.0103    18.5210    10.5574 Cl    476 CCL4  -0.0812 
2540 CL       2.1936    20.6651    12.7073 Cl    476 CCL4  -0.0812 
2541 CL       4.3152    18.5473    12.3206 Cl    476 CCL4  -0.0812 
2542 CL      -0.8784    16.9795     4.6658 Cl    477 CCL4  -0.0812 
2543 C       -0.3662    18.4314     3.9040 C.3   477 CCL4   0.3246 
2544 CL      -0.5665    19.7749     4.9856 Cl    477 CCL4  -0.0812 
2545 CL      -1.2116    18.8413     2.4298 Cl    477 CCL4  -0.0812 
2546 CL       1.4203    18.3964     3.5885 Cl    477 CCL4  -0.0812 
2547 CL      -1.0808    18.9371     8.9091 Cl    478 CCL4  -0.0812 
2548 C       -0.8201    20.6496     8.8141 C.3   478 CCL4   0.3246 
2549 CL      -1.9421    21.5044     7.8499 Cl    478 CCL4  -0.0812 
2550 CL       0.9034    20.8472     8.0428 Cl    478 CCL4  -0.0812 
2551 CL      -0.5812    21.3315    10.4726 Cl    478 CCL4  -0.0812 
2552 CL      -4.9428    19.6692     7.3409 Cl    479 CCL4  -0.0812 
2553 C       -5.2741    20.4376     5.7677 C.3   479 CCL4   0.3246 
2554 CL      -6.9132    20.2369     5.2356 Cl    479 CCL4  -0.0812 
2555 CL      -4.2729    19.7735     4.5146 Cl    479 CCL4  -0.0812 
2556 CL      -5.0490    22.1649     5.9196 Cl    479 CCL4  -0.0812 
2557 CL      17.5075    17.2372    16.1884 Cl    480 CCL4  -0.0812 
2558 C       16.5453    18.0282    17.4499 C.3   480 CCL4   0.3246 
2559 CL      17.5768    18.6437    18.7522 Cl    480 CCL4  -0.0812 
2560 CL      15.3299    17.0464    18.1876 Cl    480 CCL4  -0.0812 
2561 CL      15.8356    19.6290    16.6928 Cl    480 CCL4  -0.0812 
2562 CL       7.6311    16.9070     3.9736 Cl    481 CCL4  -0.0812 
2563 C        5.9295    16.9651     3.6882 C.3   481 CCL4   0.3246 
2564 CL       5.2236    15.5019     4.1471 Cl    481 CCL4  -0.0812 
2565 CL       5.5938    17.4156     1.9483 Cl    481 CCL4  -0.0812 
2566 CL       5.2748    18.3334     4.7050 Cl    481 CCL4  -0.0812 
2567 CL       4.7251    21.5858    18.2212 Cl    482 CCL4  -0.0812 
2568 C        5.3827    20.3726    17.0962 C.3   482 CCL4   0.3246 
2569 CL       4.2403    19.9605    15.8467 Cl    482 CCL4  -0.0812 
2570 CL       5.8771    18.9575    17.9296 Cl    482 CCL4  -0.0812 
2571 CL       6.7224    21.0831    16.2168 Cl    482 CCL4  -0.0812 
2572 CL      -3.7994    17.2944    19.2942 Cl    483 CCL4  -0.0812 
2573 C       -2.7156    16.6963    18.0252 C.3   483 CCL4   0.3246 
2574 CL      -3.6619    15.3647    17.3211 Cl    483 CCL4  -0.0812 
2575 CL      -1.3835    15.8443    18.8385 Cl    483 CCL4  -0.0812 
2576 CL      -2.2078    17.9476    16.8574 Cl    483 CCL4  -0.0812 
2577 CL      11.7959    18.8884     8.8537 Cl    484 CCL4  -0.0812 
2578 C       12.3269    20.2358     9.8340 C.3   484 CCL4   0.3246 
2579 CL      12.0799    21.8028     8.9362 Cl    484 CCL4  -0.0812 
2580 CL      14.0791    20.0050    10.0924 Cl    484 CCL4  -0.0812 
2581 CL      11.3926    20.2877    11.4072 Cl    484 CCL4  -0.0812 
2582 CL       9.9620    13.0817    11.7481 Cl    485 CCL4  -0.0812 
2583 C        9.4119    11.7097    12.7058 C.3   485 CCL4   0.3246 
2584 CL       8.4254    12.2615    14.0711 Cl    485 CCL4  -0.0812 
2585 CL      10.8417    10.9099    13.3074 Cl    485 CCL4  -0.0812 
2586 CL       8.3751    10.6409    11.6386 Cl    485 CCL4  -0.0812 
2587 CL      14.8032    15.1716     7.9457 Cl    486 CCL4  -0.0812 
2588 C       16.2750    16.1296     7.8414 C.3   486 CCL4   0.3246 
2589 CL      17.7555    15.1139     7.9761 Cl    486 CCL4  -0.0812 
2590 CL      16.3609    17.4163     9.0252 Cl    486 CCL4  -0.0812 
2591 CL      16.3956    16.9600     6.2411 Cl    486 CCL4  -0.0812 
2592 CL      13.8024     9.8544    11.7003 Cl    487 CCL4  -0.0812 
2593 C       14.5256    11.4371    11.7381 C.3   487 CCL4   0.3246 
2594 CL      14.8580    11.8036    13.5258 Cl    487 CCL4  -0.0812 
2595 CL      13.3880    12.7023    11.2135 Cl    487 CCL4  -0.0812 
2596 CL      16.0098    11.6318    10.8090 Cl    487 CCL4  -0.0812 
2597 CL      15.4286    18.6379    13.0121 Cl    488 CCL4  -0.0812 
2598 C       14.8904    16.8770    12.9274 C.3   488 CCL4   0.3246 
2599 CL      13.4376    16.8787    11.8585 Cl    488 CCL4  -0.0812 
2600 CL      14.5863    16.2811    14.5510 Cl    488 CCL4  -0.0812 
2601 CL      16.2495    15.8885    12.3243 Cl    488 CCL4  -0.0812 
2602 CL       8.2746     4.7713     4.6402 Cl    489 CCL4  -0.0812 
2603 C        9.1657     6.3122     4.9836 C.3   489 CCL4   0.3246 
2604 CL      10.6826     5.9441     5.9501 Cl    489 CCL4  -0.0812 
2605 CL       8.0790     7.4030     5.8931 Cl    489 CCL4  -0.0812 
2606 CL       9.6040     7.0906     3.4459 Cl    489 CCL4  -0.0812 
2607 CL      15.4761     8.9553     4.9301 Cl    490 CCL4  -0.0812 
2608 C       14.2649     7.8829     4.0122 C.3   490 CCL4   0.3246 
2609 CL      14.0239     6.3782     4.9498 Cl    490 CCL4  -0.0812 
2610 CL      14.9852     7.4958     2.3987 Cl    490 CCL4  -0.0812 
2611 CL      12.7088     8.7275     3.9896 Cl    490 CCL4  -0.0812 
2612 CL      10.7613    12.5214     7.9222 Cl    491 CCL4  -0.0812 
2613 C       11.6289    11.0367     7.9773 C.3   491 CCL4   0.3246 
2614 CL      11.1099     9.7986     6.7647 Cl    491 CCL4  -0.0812 
2615 CL      11.2739    10.2309     9.6614 Cl    491 CCL4  -0.0812 
2616 CL      13.4243    11.1932     7.9344 Cl    491 CCL4  -0.0812 
2617 CL       9.2774     7.4350     9.9506 Cl    492 CCL4  -0.0812 
2618 C        9.6516     6.6167    11.4656 C.3   492 CCL4   0.3246 
2619 CL      10.9477     7.4338    12.3174 Cl    492 CCL4  -0.0812 
2620 CL      10.1914     4.9257    11.1701 Cl    492 CCL4  -0.0812 
2621 CL       8.1672     6.4121    12.5478 Cl    492 CCL4  -0.0812 
2622 CL      13.0995    16.3426     4.9791 Cl    493 CCL4  -0.0812 
2623 C       11.4146    16.6492     4.5355 C.3   493 CCL4   0.3246 
2624 CL      10.3866    15.8353     5.7247 Cl    493 CCL4  -0.0812 
2625 CL      10.9986    16.0515     2.8930 Cl    493 CCL4  -0.0812 
2626 CL      10.8818    18.3418     4.6342 Cl    493 CCL4  -0.0812 
2627 CL      13.5036     4.2819     8.2221 Cl    494 CCL4  -0.0812 
2628 C       13.5875     5.7708     9.1600 C.3   494 CCL4   0.3246 
2629 CL      13.5897     5.5712    10.8610 Cl    494 CCL4  -0.0812 
2630 CL      12.3024     6.8835     8.6870 Cl    494 CCL4  -0.0812 
2631 CL      15.0072     6.8339     8.6436 Cl    494 CCL4  -0.0812 
2632 CL      13.1936    12.6163    17.1464 Cl    495 CCL4  -0.0812 
2633 C       11.9352    13.7070    16.4997 C.3   495 CCL4   0.3246 
2634 CL      10.2290    13.0031    17.0279 Cl    495 CCL4  -0.0812 
2635 CL      11.9557    13.7789    14.7282 Cl    495 CCL4  -0.0812 
2636 CL      11.8640    15.3125    17.2841 Cl    495 CCL4  -0.0812 
2637 CL       9.2075    16.8297    15.5643 Cl    496 CCL4  -0.0812 
2638 C        8.5297    17.1793    14.0009 C.3   496 CCL4   0.3246 
2639 CL       7.7112    15.6819    13.5695 Cl    496 CCL4  -0.0812 
2640 CL       9.6640    17.5907    12.6678 Cl    496 CCL4  -0.0812 
2641 CL       7.2895    18.4625    14.0287 Cl    496 CCL4  -0.0812 
2642 CL      11.5590     9.6591    18.0387 Cl    497 CCL4  -0.0812 
2643 C       13.0379     8.9755    17.3493 C.3   497 CCL4   0.3246 
2644 CL      13.2525     9.7382    15.7103 Cl    497 CCL4  -0.0812 
2645 CL      12.9334     7.2239    17.2381 Cl    497 CCL4  -0.0812 
2646 CL      14.4497     9.3631    18.3342 Cl    497 CCL4  -0.0812 
2647 CL       8.1860    18.5159     7.1124 Cl    498 CCL4  -0.0812 
2648 C        7.7608    20.3138     6.7411 C.3   498 CCL4   0.3246 
2649 CL       8.6705    21.4304     7.7520 Cl    498 CCL4  -0.0812 
2650 CL       6.0263    20.5346     7.1598 Cl    498 CCL4  -0.0812 
2651 CL       8.1570    20.6687     5.0760 Cl    498 CCL4  -0.0812 
2652 CL      12.8080    21.3247    15.0605 Cl    499 CCL4  -0.0812 
2653 C       11.7903    20.0626    15.8522 C.3   499 CCL4   0.3246 
2654 CL      12.1402    19.9677    17.6099 Cl    499 CCL4  -0.0812 
2655 CL      12.1059    18.4623    15.1686 Cl    499 CCL4  -0.0812 
2656 CL      10.0264    20.3648    15.5152 Cl    499 CCL4  -0.0812 
@<TRIPOS>BOND
   1    1    2  1   
   2    1    5  ar  
   3    1   13  ar  
   4    2    3  1   
   5    2   21  1   
   6    2   70  1   
   7    3    4  1   
   8    5    6  1   
   9    5    7  ar  
  10    7    8  1   
  11    7    9  ar  
  12    9   10  1   
  13    9   11  ar  
  14   11   12  1   
  15   11   13  ar  
  16   13   14  1   
  17   15   16  1   
  18   15   17  ar  
  19   15   24  ar  
  20   16   32  1   
  21   17   18  1   
  22   17   19  ar  
  23   19   20  1   
  24   19   21  ar  
  25   21   22  ar  
  26   22   23  1   
  27   22   24  ar  
  28   24   25  1   
  29   26   27  1   
  30   26   28  ar  
  31   26   35  ar  
  32   27   45  1   
  33   28   29  1   
  34   28   30  ar  
  35   30   31  1   
  36   30   32  ar  
  37   32   33  ar  
  38   33   34  1   
  39   33   35  ar  
  40   35   36  1   
  41   37   38  1   
  42   37   41  ar  
  43   37   48  ar  
  44   38   39  1   
  45   38   56  1   
  46   38  123  1   
  47   39   40  1   
  48   41   42  1   
  49   41   43  ar  
  50   43   44  1   
  51   43   45  ar  
  52   45   46  ar  
  53   46   47  1   
  54   46   48  ar  
  55   48   49  1   
  56   50   51  1   
  57   50   52  ar  
  58   50   59  ar  
  59   52   53  1   
  60   52   54  ar  
  61   54   55  1   
  62   54   56  ar  
  63   56   57  ar  
  64   57   58  1   
  65   57   59  ar  
  66   59   60  1   
  67   61   62  1   
  68   61  111  2   
  69   61  112  1   
  70   62   63  1   
  71   62   64  1   
  72   62   65  1   
  73   65   66  1   
  74   65   67  1   
  75   65  110  1   
  76   67   68  1   
  77   67   69  1   
  78   67   70  1   
  79   70   71  1   
  80   70   72  1   
  81   72   73  1   
  82   72   74  1   
  83   72  109  1   
  84   74   75  1   
  85   74   76  1   
  86   74   77  1   
  87   77   78  1   
  88   77   79  1   
  89   77  108  1   
  90   79   80  1   
  91   79   81  2   
  92   81   82  1   
  93   81   83  1   
  94   83   84  1   
  95   83  106  1   
  96   83  107  1   
  97   84   85  1   
  98   84   86  1   
  99   84  105  1   
 100   86   87  1   
 101   86   88  1   
 102   86   89  1   
 103   89   90  1   
 104   89   91  1   
 105   89  104  1   
 106   91   92  1   
 107   91   93  1   
 108   91   94  1   
 109   94   95  1   
 110   94   96  1   
 111   94  103  1   
 112   96   97  1   
 113   96   98  1   
 114   96   99  1   
 115   99  100  1   
 116   99  101  1   
 117   99  102  1   
 118  112  113  1   
 119  114  115  1   
 120  114  164  2   
 121  114  165  1   
 122  115  117  1   
 123  115  120  1   
 124  115  121  1   
 125  116  118  1   
 126  116  119  1   
 127  116  148  1   
 128  116  150  1   
 129  121  122  1   
 130  121  123  1   
 131  121  163  1   
 132  123  124  1   
 133  123  125  1   
 134  125  126  1   
 135  125  161  1   
 136  125  162  1   
 137  126  127  1   
 138  126  128  1   
 139  126  160  1   
 140  128  129  1   
 141  128  130  1   
 142  128  131  1   
 143  131  132  1   
 144  131  133  1   
 145  131  159  1   
 146  133  134  1   
 147  133  135  2   
 148  135  136  1   
 149  135  137  1   
 150  137  138  1   
 151  137  157  1   
 152  137  158  1   
 153  138  139  1   
 154  138  140  1   
 155  138  156  1   
 156  140  141  1   
 157  140  142  1   
 158  140  143  1   
 159  143  144  1   
 160  143  145  1   
 161  143  155  1   
 162  145  146  1   
 163  145  147  1   
 164  145  148  1   
 165  148  149  1   
 166  148  154  1   
 167  150  151  1   
 168  150  152  1   
 169  150  153  1   
 170  165  166  1   
 171  167  168  1   
 172  168  169  1   
 173  168  170  1   
 174  168  171  1   
 175  172  173  1   
 176  173  174  1   
 177  173  175  1   
 178  173  176  1   
 179  177  178  1   
 180  178  179  1   
 181  178  180  1   
 182  178  181  1   
 183  182  183  1   
 184  183  184  1   
 185  183  185  1   
 186  183  186  1   
 187  187  188  1   
 188  188  189  1   
 189  188  190  1   
 190  188  191  1   
 191  192  193  1   
 192  193  194  1   
 193  193  195  1   
 194  193  196  1   
 195  197  198  1   
 196  198  199  1   
 197  198  200  1   
 198  198  201  1   
 199  202  203  1   
 200  203  204  1   
 201  203  205  1   
 202  203  206  1   
 203  207  208  1   
 204  208  209  1   
 205  208  210  1   
 206  208  211  1   
 207  212  213  1   
 208  213  214  1   
 209  213  215  1   
 210  213  216  1   
 211  217  218  1   
 212  218  219  1   
 213  218  220  1   
 214  218  221  1   
 215  222  223  1   
 216  223  224  1   
 217  223  225  1   
 218  223  226  1   
 219  227  228  1   
 220  228  229  1   
 221  228  230  1   
 222  228  231  1   
 223  232  233  1   
 224  233  234  1   
 225  233  235  1   
 226  233  236  1   
 227  237  238  1   
 228  238  239  1   
 229  238  240  1   
 230  238  241  1   
 231  242  243  1   
 232  243  244  1   
 233  243  245  1   
 234  243  246  1   
 235  247  248  1   
 236  248  249  1   
 237  248  250  1   
 238  248  251  1   
 239  252  253  1   
 240  253  254  1   
 241  253  255  1   
 242  253  256  1   
 243  257  258  1   
 244  258  259  1   
 245  258  260  1   
 246  258  261  1   
 247  262  263  1   
 248  263  264  1   
 249  263  265  1   
 250  263  266  1   
 251  267  268  1   
 252  268  269  1   
 253  268  270  1   
 254  268  271  1   
 255  272  273  1   
 256  273  274  1   
 257  273  275  1   
 258  273  276  1   
 259  277  278  1   
 260  278  279  1   
 261  278  280  1   
 262  278  281  1   
 263  282  283  1   
 264  283  284  1   
 265  283  285  1   
 266  283  286  1   
 267  287  288  1   
 268  288  289  1   
 269  288  290  1   
 270  288  291  1   
 271  292  293  1   
 272  293  294  1   
 273  293  295  1   
 274  293  296  1   
 275  297  298  1   
 276  298  299  1   
 277  298  300  1   
 278  298  301  1   
 279  302  303  1   
 280  303  304  1   
 281  303  305  1   
 282  303  306  1   
 283  307  308  1   
 284  308  309  1   
 285  308  310  1   
 286  308  311  1   
 287  312  313  1   
 288  313  314  1   
 289  313  315  1   
 290  313  316  1   
 291  317  318  1   
 292  318  319  1   
 293  318  320  1   
 294  318  321  1   
 295  322  323  1   
 296  323  324  1   
 297  323  325  1   
 298  323  326  1   
 299  327  328  1   
 300  328  329  1   
 301  328  330  1   
 302  328  331  1   
 303  332  333  1   
 304  333  334  1   
 305  333  335  1   
 306  333  336  1   
 307  337  338  1   
 308  338  339  1   
 309  338  340  1   
 310  338  341  1   
 311  342  343  1   
 312  343  344  1   
 313  343  345  1   
 314  343  346  1   
 315  347  348  1   
 316  348  349  1   
 317  348  350  1   
 318  348  351  1   
 319  352  353  1   
 320  353  354  1   
 321  353  355  1   
 322  353  356  1   
 323  357  358  1   
 324  358  359  1   
 325  358  360  1   
 326  358  361  1   
 327  362  363  1   
 328  363  364  1   
 329  363  365  1   
 330  363  366  1   
 331  367  368  1   
 332  368  369  1   
 333  368  370  1   
 334  368  371  1   
 335  372  373  1   
 336  373  374  1   
 337  373  375  1   
 338  373  376  1   
 339  377  378  1   
 340  378  379  1   
 341  378  380  1   
 342  378  381  1   
 343  382  383  1   
 344  383  384  1   
 345  383  385  1   
 346  383  386  1   
 347  387  388  1   
 348  388  389  1   
 349  388  390  1   
 350  388  391  1   
 351  392  393  1   
 352  393  394  1   
 353  393  395  1   
 354  393  396  1   
 355  397  398  1   
 356  398  399  1   
 357  398  400  1   
 358  398  401  1   
 359  402  403  1   
 360  403  404  1   
 361  403  405  1   
 362  403  406  1   
 363  407  408  1   
 364  408  409  1   
 365  408  410  1   
 366  408  411  1   
 367  412  413  1   
 368  413  414  1   
 369  413  415  1   
 370  413  416  1   
 371  417  418  1   
 372  418  419  1   
 373  418  420  1   
 374  418  421  1   
 375  422  423  1   
 376  423  424  1   
 377  423  425  1   
 378  423  426  1   
 379  427  428  1   
 380  428  429  1   
 381  428  430  1   
 382  428  431  1   
 383  432  433  1   
 384  433  434  1   
 385  433  435  1   
 386  433  436  1   
 387  437  438  1   
 388  438  439  1   
 389  438  440  1   
 390  438  441  1   
 391  442  443  1   
 392  443  444  1   
 393  443  445  1   
 394  443  446  1   
 395  447  448  1   
 396  448  449  1   
 397  448  450  1   
 398  448  451  1   
 399  452  453  1   
 400  453  454  1   
 401  453  455  1   
 402  453  456  1   
 403  457  458  1   
 404  458  459  1   
 405  458  460  1   
 406  458  461  1   
 407  462  463  1   
 408  463  464  1   
 409  463  465  1   
 410  463  466  1   
 411  467  468  1   
 412  468  469  1   
 413  468  470  1   
 414  468  471  1   
 415  472  473  1   
 416  473  474  1   
 417  473  475  1   
 418  473  476  1   
 419  477  478  1   
 420  478  479  1   
 421  478  480  1   
 422  478  481  1   
 423  482  483  1   
 424  483  484  1   
 425  483  485  1   
 426  483  486  1   
 427  487  488  1   
 428  488  489  1   
 429  488  490  1   
 430  488  491  1   
 431  492  493  1   
 432  493  494  1   
 433  493  495  1   
 434  493  496  1   
 435  497  498  1   
 436  498  499  1   
 437  498  500  1   
 438  498  501  1   
 439  502  503  1   
 440  503  504  1   
 441  503  505  1   
 442  503  506  1   
 443  507  508  1   
 444  508  509  1   
 445  508  510  1   
 446  508  511  1   
 447  512  513  1   
 448  513  514  1   
 449  513  515  1   
 450  513  516  1   
 451  517  518  1   
 452  518  519  1   
 453  518  520  1   
 454  518  521  1   
 455  522  523  1   
 456  523  524  1   
 457  523  525  1   
 458  523  526  1   
 459  527  528  1   
 460  528  529  1   
 461  528  530  1   
 462  528  531  1   
 463  532  533  1   
 464  533  534  1   
 465  533  535  1   
 466  533  536  1   
 467  537  538  1   
 468  538  539  1   
 469  538  540  1   
 470  538  541  1   
 471  542  543  1   
 472  543  544  1   
 473  543  545  1   
 474  543  546  1   
 475  547  548  1   
 476  548  549  1   
 477  548  550  1   
 478  548  551  1   
 479  552  553  1   
 480  553  554  1   
 481  553  555  1   
 482  553  556  1   
 483  557  558  1   
 484  558  559  1   
 485  558  560  1   
 486  558  561  1   
 487  562  563  1   
 488  563  564  1   
 489  563  565  1   
 490  563  566  1   
 491  567  568  1   
 492  568  569  1   
 493  568  570  1   
 494  568  571  1   
 495  572  573  1   
 496  573  574  1   
 497  573  575  1   
 498  573  576  1   
 499  577  578  1   
 500  578  579  1   
 501  578  580  1   
 502  578  581  1   
 503  582  583  1   
 504  583  584  1   
 505  583  585  1   
 506  583  586  1   
 507  587  588  1   
 508  588  589  1   
 509  588  590  1   
 510  588  591  1   
 511  592  593  1   
 512  593  594  1   
 513  593  595  1   
 514  593  596  1   
 515  597  598  1   
 516  598  599  1   
 517  598  600  1   
 518  598  601  1   
 519  602  603  1   
 520  603  604  1   
 521  603  605  1   
 522  603  606  1   
 523  607  608  1   
 524  608  609  1   
 525  608  610  1   
 526  608  611  1   
 527  612  613  1   
 528  613  614  1   
 529  613  615  1   
 530  613  616  1   
 531  617  618  1   
 532  618  619  1   
 533  618  620  1   
 534  618  621  1   
 535  622  623  1   
 536  623  624  1   
 537  623  625  1   
 538  623  626  1   
 539  627  628  1   
 540  628  629  1   
 541  628  630  1   
 542  628  631  1   
 543  632  633  1   
 544  633  634  1   
 545  633  635  1   
 546  633  636  1   
 547  637  638  1   
 548  638  639  1   
 549  638  640  1   
 550  638  641  1   
 551  642  643  1   
 552  643  644  1   
 553  643  645  1   
 554  643  646  1   
 555  647  648  1   
 556  648  649  1   
 557  648  650  1   
 558  648  651  1   
 559  652  653  1   
 560  653  654  1   
 561  653  655  1   
 562  653  656  1   
 563  657  658  1   
 564  658  659  1   
 565  658  660  1   
 566  658  661  1   
 567  662  663  1   
 568  663  664  1   
 569  663  665  1   
 570  663  666  1   
 571  667  668  1   
 572  668  669  1   
 573  668  670  1   
 574  668  671  1   
 575  672  673  1   
 576  673  674  1   
 577  673  675  1   
 578  673  676  1   
 579  677  678  1   
 580  678  679  1   
 581  678  680  1   
 582  678  681  1   
 583  682  683  1   
 584  683  684  1   
 585  683  685  1   
 586  683  686  1   
 587  687  688  1   
 588  688  689  1   
 589  688  690  1   
 590  688  691  1   
 591  692  693  1   
 592  693  694  1   
 593  693  695  1   
 594  693  696  1   
 595  697  698  1   
 596  698  699  1   
 597  698  700  1   
 598  698  701  1   
 599  702  703  1   
 600  703  704  1   
 601  703  705  1   
 602  703  706  1   
 603  707  708  1   
 604  708  709  1   
 605  708  710  1   
 606  708  711  1   
 607  712  713  1   
 608  713  714  1   
 609  713  715  1   
 610  713  716  1   
 611  717  718  1   
 612  718  719  1   
 613  718  720  1   
 614  718  721  1   
 615  722  723  1   
 616  723  724  1   
 617  723  725  1   
 618  723  726  1   
 619  727  728  1   
 620  728  729  1   
 621  728  730  1   
 622  728  731  1   
 623  732  733  1   
 624  733  734  1   
 625  733  735  1   
 626  733  736  1   
 627  737  738  1   
 628  738  739  1   
 629  738  740  1   
 630  738  741  1   
 631  742  743  1   
 632  743  744  1   
 633  743  745  1   
 634  743  746  1   
 635  747  748  1   
 636  748  749  1   
 637  748  750  1   
 638  748  751  1   
 639  752  753  1   
 640  753  754  1   
 641  753  755  1   
 642  753  756  1   
 643  757  758  1   
 644  758  759  1   
 645  758  760  1   
 646  758  761  1   
 647  762  763  1   
 648  763  764  1   
 649  763  765  1   
 650  763  766  1   
 651  767  768  1   
 652  768  769  1   
 653  768  770  1   
 654  768  771  1   
 655  772  773  1   
 656  773  774  1   
 657  773  775  1   
 658  773  776  1   
 659  777  778  1   
 660  778  779  1   
 661  778  780  1   
 662  778  781  1   
 663  782  783  1   
 664  783  784  1   
 665  783  785  1   
 666  783  786  1   
 667  787  788  1   
 668  788  789  1   
 669  788  790  1   
 670  788  791  1   
 671  792  793  1   
 672  793  794  1   
 673  793  795  1   
 674  793  796  1   
 675  797  798  1   
 676  798  799  1   
 677  798  800  1   
 678  798  801  1   
 679  802  803  1   
 680  803  804  1   
 681  803  805  1   
 682  803  806  1   
 683  807  808  1   
 684  808  809  1   
 685  808  810  1   
 686  808  811  1   
 687  812  813  1   
 688  813  814  1   
 689  813  815  1   
 690  813  816  1   
 691  817  818  1   
 692  818  819  1   
 693  818  820  1   
 694  818  821  1   
 695  822  823  1   
 696  823  824  1   
 697  823  825  1   
 698  823  826  1   
 699  827  828  1   
 700  828  829  1   
 701  828  830  1   
 702  828  831  1   
 703  832  833  1   
 704  833  834  1   
 705  833  835  1   
 706  833  836  1   
 707  837  838  1   
 708  838  839  1   
 709  838  840  1   
 710  838  841  1   
 711  842  843  1   
 712  843  844  1   
 713  843  845  1   
 714  843  846  1   
 715  847  848  1   
 716  848  849  1   
 717  848  850  1   
 718  848  851  1   
 719  852  853  1   
 720  853  854  1   
 721  853  855  1   
 722  853  856  1   
 723  857  858  1   
 724  858  859  1   
 725  858  860  1   
 726  858  861  1   
 727  862  863  1   
 728  863  864  1   
 729  863  865  1   
 730  863  866  1   
 731  867  868  1   
 732  868  869  1   
 733  868  870  1   
 734  868  871  1   
 735  872  873  1   
 736  873  874  1   
 737  873  875  1   
 738  873  876  1   
 739  877  878  1   
 740  878  879  1   
 741  878  880  1   
 742  878  881  1   
 743  882  883  1   
 744  883  884  1   
 745  883  885  1   
 746  883  886  1   
 747  887  888  1   
 748  888  889  1   
 749  888  890  1   
 750  888  891  1   
 751  892  893  1   
 752  893  894  1   
 753  893  895  1   
 754  893  896  1   
 755  897  898  1   
 756  898  899  1   
 757  898  900  1   
 758  898  901  1   
 759  902  903  1   
 760  903  904  1   
 761  903  905  1   
 762  903  906  1   
 763  907  908  1   
 764  908  909  1   
 765  908  910  1   
 766  908  911  1   
 767  912  913  1   
 768  913  914  1   
 769  913  915  1   
 770  913  916  1   
 771  917  918  1   
 772  918  919  1   
 773  918  920  1   
 774  918  921  1   
 775  922  923  1   
 776  923  924  1   
 777  923  925  1   
 778  923  926  1   
 779  927  928  1   
 780  928  929  1   
 781  928  930  1   
 782  928  931  1   
 783  932  933  1   
 784  933  934  1   
 785  933  935  1   
 786  933  936  1   
 787  937  938  1   
 788  938  939  1   
 789  938  940  1   
 790  938  941  1   
 791  942  943  1   
 792  943  944  1   
 793  943  945  1   
 794  943  946  1   
 795  947  948  1   
 796  948  949  1   
 797  948  950  1   
 798  948  951  1   
 799  952  953  1   
 800  953  954  1   
 801  953  955  1   
 802  953  956  1   
 803  957  958  1   
 804  958  959  1   
 805  958  960  1   
 806  958  961  1   
 807  962  963  1   
 808  963  964  1   
 809  963  965  1   
 810  963  966  1   
 811  967  968  1   
 812  968  969  1   
 813  968  970  1   
 814  968  971  1   
 815  972  973  1   
 816  973  974  1   
 817  973  975  1   
 818  973  976  1   
 819  977  978  1   
 820  978  979  1   
 821  978  980  1   
 822  978  981  1   
 823  982  983  1   
 824  983  984  1   
 825  983  985  1   
 826  983  986  1   
 827  987  988  1   
 828  988  989  1   
 829  988  990  1   
 830  988  991  1   
 831  992  993  1   
 832  993  994  1   
 833  993  995  1   
 834  993  996  1   
 835  997  998  1   
 836  998  999  1   
 837  998 1000  1   
 838  998 1001  1   
 839 1002 1003  1   
 840 1003 1004  1   
 841 1003 1005  1   
 842 1003 1006  1   
 843 1007 1008  1   
 844 1008 1009  1   
 845 1008 1010  1   
 846 1008 1011  1   
 847 1012 1013  1   
 848 1013 1014  1   
 849 1013 1015  1   
 850 1013 1016  1   
 851 1017 1018  1   
 852 1018 1019  1   
 853 1018 1020  1   
 854 1018 1021  1   
 855 1022 1023  1   
 856 1023 1024  1   
 857 1023 1025  1   
 858 1023 1026  1   
 859 1027 1028  1   
 860 1028 1029  1   
 861 1028 1030  1   
 862 1028 1031  1   
 863 1032 1033  1   
 864 1033 1034  1   
 865 1033 1035  1   
 866 1033 1036  1   
 867 1037 1038  1   
 868 1038 1039  1   
 869 1038 1040  1   
 870 1038 1041  1   
 871 1042 1043  1   
 872 1043 1044  1   
 873 1043 1045  1   
 874 1043 1046  1   
 875 1047 1048  1   
 876 1048 1049  1   
 877 1048 1050  1   
 878 1048 1051  1   
 879 1052 1053  1   
 880 1053 1054  1   
 881 1053 1055  1   
 882 1053 1056  1   
 883 1057 1058  1   
 884 1058 1059  1   
 885 1058 1060  1   
 886 1058 1061  1   
 887 1062 1063  1   
 888 1063 1064  1   
 889 1063 1065  1   
 890 1063 1066  1   
 891 1067 1068  1   
 892 1068 1069  1   
 893 1068 1070  1   
 894 1068 1071  1   
 895 1072 1073  1   
 896 1073 1074  1   
 897 1073 1075  1   
 898 1073 1076  1   
 899 1077 1078  1   
 900 1078 1079  1   
 901 1078 1080  1   
 902 1078 1081  1   
 903 1082 1083  1   
 904 1083 1084  1   
 905 1083 1085  1   
 906 1083 1086  1   
 907 1087 1088  1   
 908 1088 1089  1   
 909 1088 1090  1   
 910 1088 1091  1   
 911 1092 1093  1   
 912 1093 1094  1   
 913 1093 1095  1   
 914 1093 1096  1   
 915 1097 1098  1   
 916 1098 1099  1   
 917 1098 1100  1   
 918 1098 1101  1   
 919 1102 1103  1   
 920 1103 1104  1   
 921 1103 1105  1   
 922 1103 1106  1   
 923 1107 1108  1   
 924 1108 1109  1   
 925 1108 1110  1   
 926 1108 1111  1   
 927 1112 1113  1   
 928 1113 1114  1   
 929 1113 1115  1   
 930 1113 1116  1   
 931 1117 1118  1   
 932 1118 1119  1   
 933 1118 1120  1   
 934 1118 1121  1   
 935 1122 1123  1   
 936 1123 1124  1   
 937 1123 1125  1   
 938 1123 1126  1   
 939 1127 1128  1   
 940 1128 1129  1   
 941 1128 1130  1   
 942 1128 1131  1   
 943 1132 1133  1   
 944 1133 1134  1   
 945 1133 1135  1   
 946 1133 1136  1   
 947 1137 1138  1   
 948 1138 1139  1   
 949 1138 1140  1   
 950 1138 1141  1   
 951 1142 1143  1   
 952 1143 1144  1   
 953 1143 1145  1   
 954 1143 1146  1   
 955 1147 1148  1   
 956 1148 1149  1   
 957 1148 1150  1   
 958 1148 1151  1   
 959 1152 1153  1   
 960 1153 1154  1   
 961 1153 1155  1   
 962 1153 1156  1   
 963 1157 1158  1   
 964 1158 1159  1   
 965 1158 1160  1   
 966 1158 1161  1   
 967 1162 1163  1   
 968 1163 1164  1   
 969 1163 1165  1   
 970 1163 1166  1   
 971 1167 1168  1   
 972 1168 1169  1   
 973 1168 1170  1   
 974 1168 1171  1   
 975 1172 1173  1   
 976 1173 1174  1   
 977 1173 1175  1   
 978 1173 1176  1   
 979 1177 1178  1   
 980 1178 1179  1   
 981 1178 1180  1   
 982 1178 1181  1   
 983 1182 1183  1   
 984 1183 1184  1   
 985 1183 1185  1   
 986 1183 1186  1   
 987 1187 1188  1   
 988 1188 1189  1   
 989 1188 1190  1   
 990 1188 1191  1   
 991 1192 1193  1   
 992 1193 1194  1   
 993 1193 1195  1   
 994 1193 1196  1   
 995 1197 1198  1   
 996 1198 1199  1   
 997 1198 1200  1   
 998 1198 1201  1   
 999 1202 1203  1   
1000 1203 1204  1   
1001 1203 1205  1   
1002 1203 1206  1   
1003 1207 1208  1   
1004 1208 1209  1   
1005 1208 1210  1   
1006 1208 1211  1   
1007 1212 1213  1   
1008 1213 1214  1   
1009 1213 1215  1   
1010 1213 1216  1   
1011 1217 1218  1   
1012 1218 1219  1   
1013 1218 1220  1   
1014 1218 1221  1   
1015 1222 1223  1   
1016 1223 1224  1   
1017 1223 1225  1   
1018 1223 1226  1   
1019 1227 1228  1   
1020 1228 1229  1   
1021 1228 1230  1   
1022 1228 1231  1   
1023 1232 1233  1   
1024 1233 1234  1   
1025 1233 1235  1   
1026 1233 1236  1   
1027 1237 1238  1   
1028 1238 1239  1   
1029 1238 1240  1   
1030 1238 1241  1   
1031 1242 1243  1   
1032 1243 1244  1   
1033 1243 1245  1   
1034 1243 1246  1   
1035 1247 1248  1   
1036 1248 1249  1   
1037 1248 1250  1   
1038 1248 1251  1   
1039 1252 1253  1   
1040 1253 1254  1   
1041 1253 1255  1   
1042 1253 1256  1   
1043 1257 1258  1   
1044 1258 1259  1   
1045 1258 1260  1   
1046 1258 1261  1   
1047 1262 1263  1   
1048 1263 1264  1   
1049 1263 1265  1   
1050 1263 1266  1   
1051 1267 1268  1   
1052 1268 1269  1   
1053 1268 1270  1   
1054 1268 1271  1   
1055 1272 1273  1   
1056 1273 1274  1   
1057 1273 1275  1   
1058 1273 1276  1   
1059 1277 1278  1   
1060 1278 1279  1   
1061 1278 1280  1   
1062 1278 1281  1   
1063 1282 1283  1   
1064 1283 1284  1   
1065 1283 1285  1   
1066 1283 1286  1   
1067 1287 1288  1   
1068 1288 1289  1   
1069 1288 1290  1   
1070 1288 1291  1   
1071 1292 1293  1   
1072 1293 1294  1   
1073 1293 1295  1   
1074 1293 1296  1   
1075 1297 1298  1   
1076 1298 1299  1   
1077 1298 1300  1   
1078 1298 1301  1   
1079 1302 1303  1   
1080 1303 1304  1   
1081 1303 1305  1   
1082 1303 1306  1   
1083 1307 1308  1   
1084 1308 1309  1   
1085 1308 1310  1   
1086 1308 1311  1   
1087 1312 1313  1   
1088 1313 1314  1   
1089 1313 1315  1   
1090 1313 1316  1   
1091 1317 1318  1   
1092 1318 1319  1   
1093 1318 1320  1   
1094 1318 1321  1   
1095 1322 1323  1   
1096 1323 1324  1   
1097 1323 1325  1   
1098 1323 1326  1   
1099 1327 1328  1   
1100 1328 1329  1   
1101 1328 1330  1   
1102 1328 1331  1   
1103 1332 1333  1   
1104 1333 1334  1   
1105 1333 1335  1   
1106 1333 1336  1   
1107 1337 1338  1   
1108 1338 1339  1   
1109 1338 1340  1   
1110 1338 1341  1   
1111 1342 1343  1   
1112 1343 1344  1   
1113 1343 1345  1   
1114 1343 1346  1   
1115 1347 1348  1   
1116 1348 1349  1   
1117 1348 1350  1   
1118 1348 1351  1   
1119 1352 1353  1   
1120 1353 1354  1   
1121 1353 1355  1   
1122 1353 1356  1   
1123 1357 1358  1   
1124 1358 1359  1   
1125 1358 1360  1   
1126 1358 1361  1   
1127 1362 1363  1   
1128 1363 1364  1   
1129 1363 1365  1   
1130 1363 1366  1   
1131 1367 1368  1   
1132 1368 1369  1   
1133 1368 1370  1   
1134 1368 1371  1   
1135 1372 1373  1   
1136 1373 1374  1   
1137 1373 1375  1   
1138 1373 1376  1   
1139 1377 1378  1   
1140 1378 1379  1   
1141 1378 1380  1   
1142 1378 1381  1   
1143 1382 1383  1   
1144 1383 1384  1   
1145 1383 1385  1   
1146 1383 1386  1   
1147 1387 1388  1   
1148 1388 1389  1   
1149 1388 1390  1   
1150 1388 1391  1   
1151 1392 1393  1   
1152 1393 1394  1   
1153 1393 1395  1   
1154 1393 1396  1   
1155 1397 1398  1   
1156 1398 1399  1   
1157 1398 1400  1   
1158 1398 1401  1   
1159 1402 1403  1   
1160 1403 1404  1   
1161 1403 1405  1   
1162 1403 1406  1   
1163 1407 1408  1   
1164 1408 1409  1   
1165 1408 1410  1   
1166 1408 1411  1   
1167 1412 1413  1   
1168 1413 1414  1   
1169 1413 1415  1   
1170 1413 1416  1   
1171 1417 1418  1   
1172 1418 1419  1   
1173 1418 1420  1   
1174 1418 1421  1   
1175 1422 1423  1   
1176 1423 1424  1   
1177 1423 1425  1   
1178 1423 1426  1   
1179 1427 1428  1   
1180 1428 1429  1   
1181 1428 1430  1   
1182 1428 1431  1   
1183 1432 1433  1   
1184 1433 1434  1   
1185 1433 1435  1   
1186 1433 1436  1   
1187 1437 1438  1   
1188 1438 1439  1   
1189 1438 1440  1   
1190 1438 1441  1   
1191 1442 1443  1   
1192 1443 1444  1   
1193 1443 1445  1   
1194 1443 1446  1   
1195 1447 1448  1   
1196 1448 1449  1   
1197 1448 1450  1   
1198 1448 1451  1   
1199 1452 1453  1   
1200 1453 1454  1   
1201 1453 1455  1   
1202 1453 1456  1   
1203 1457 1458  1   
1204 1458 1459  1   
1205 1458 1460  1   
1206 1458 1461  1   
1207 1462 1463  1   
1208 1463 1464  1   
1209 1463 1465  1   
1210 1463 1466  1   
1211 1467 1468  1   
1212 1468 1469  1   
1213 1468 1470  1   
1214 1468 1471  1   
1215 1472 1473  1   
1216 1473 1474  1   
1217 1473 1475  1   
1218 1473 1476  1   
1219 1477 1478  1   
1220 1478 1479  1   
1221 1478 1480  1   
1222 1478 1481  1   
1223 1482 1483  1   
1224 1483 1484  1   
1225 1483 1485  1   
1226 1483 1486  1   
1227 1487 1488  1   
1228 1488 1489  1   
1229 1488 1490  1   
1230 1488 1491  1   
1231 1492 1493  1   
1232 1493 1494  1   
1233 1493 1495  1   
1234 1493 1496  1   
1235 1497 1498  1   
1236 1498 1499  1   
1237 1498 1500  1   
1238 1498 1501  1   
1239 1502 1503  1   
1240 1503 1504  1   
1241 1503 1505  1   
1242 1503 1506  1   
1243 1507 1508  1   
1244 1508 1509  1   
1245 1508 1510  1   
1246 1508 1511  1   
1247 1512 1513  1   
1248 1513 1514  1   
1249 1513 1515  1   
1250 1513 1516  1   
1251 1517 1518  1   
1252 1518 1519  1   
1253 1518 1520  1   
1254 1518 1521  1   
1255 1522 1523  1   
1256 1523 1524  1   
1257 1523 1525  1   
1258 1523 1526  1   
1259 1527 1528  1   
1260 1528 1529  1   
1261 1528 1530  1   
1262 1528 1531  1   
1263 1532 1533  1   
1264 1533 1534  1   
1265 1533 1535  1   
1266 1533 1536  1   
1267 1537 1538  1   
1268 1538 1539  1   
1269 1538 1540  1   
1270 1538 1541  1   
1271 1542 1543  1   
1272 1543 1544  1   
1273 1543 1545  1   
1274 1543 1546  1   
1275 1547 1548  1   
1276 1548 1549  1   
1277 1548 1550  1   
1278 1548 1551  1   
1279 1552 1553  1   
1280 1553 1554  1   
1281 1553 1555  1   
1282 1553 1556  1   
1283 1557 1558  1   
1284 1558 1559  1   
1285 1558 1560  1   
1286 1558 1561  1   
1287 1562 1563  1   
1288 1563 1564  1   
1289 1563 1565  1   
1290 1563 1566  1   
1291 1567 1568  1   
1292 1568 1569  1   
1293 1568 1570  1   
1294 1568 1571  1   
1295 1572 1573  1   
1296 1573 1574  1   
1297 1573 1575  1   
1298 1573 1576  1   
1299 1577 1578  1   
1300 1578 1579  1   
1301 1578 1580  1   
1302 1578 1581  1   
1303 1582 1583  1   
1304 1583 1584  1   
1305 1583 1585  1   
1306 1583 1586  1   
1307 1587 1588  1   
1308 1588 1589  1   
1309 1588 1590  1   
1310 1588 1591  1   
1311 1592 1593  1   
1312 1593 1594  1   
1313 1593 1595  1   
1314 1593 1596  1   
1315 1597 1598  1   
1316 1598 1599  1   
1317 1598 1600  1   
1318 1598 1601  1   
1319 1602 1603  1   
1320 1603 1604  1   
1321 1603 1605  1   
1322 1603 1606  1   
1323 1607 1608  1   
1324 1608 1609  1   
1325 1608 1610  1   
1326 1608 1611  1   
1327 1612 1613  1   
1328 1613 1614  1   
1329 1613 1615  1   
1330 1613 1616  1   
1331 1617 1618  1   
1332 1618 1619  1   
1333 1618 1620  1   
1334 1618 1621  1   
1335 1622 1623  1   
1336 1623 1624  1   
1337 1623 1625  1   
1338 1623 1626  1   
1339 1627 1628  1   
1340 1628 1629  1   
1341 1628 1630  1   
1342 1628 1631  1   
1343 1632 1633  1   
1344 1633 1634  1   
1345 1633 1635  1   
1346 1633 1636  1   
1347 1637 1638  1   
1348 1638 1639  1   
1349 1638 1640  1   
1350 1638 1641  1   
1351 1642 1643  1   
1352 1643 1644  1   
1353 1643 1645  1   
1354 1643 1646  1   
1355 1647 1648  1   
1356 1648 1649  1   
1357 1648 1650  1   
1358 1648 1651  1   
1359 1652 1653  1   
1360 1653 1654  1   
1361 1653 1655  1   
1362 1653 1656  1   
1363 1657 1658  1   
1364 1658 1659  1   
1365 1658 1660  1   
1366 1658 1661  1   
1367 1662 1663  1   
1368 1663 1664  1   
1369 1663 1665  1   
1370 1663 1666  1   
1371 1667 1668  1   
1372 1668 1669  1   
1373 1668 1670  1   
1374 1668 1671  1   
1375 1672 1673  1   
1376 1673 1674  1   
1377 1673 1675  1   
1378 1673 1676  1   
1379 1677 1678  1   
1380 1678 1679  1   
1381 1678 1680  1   
1382 1678 1681  1   
1383 1682 1683  1   
1384 1683 1684  1   
1385 1683 1685  1   
1386 1683 1686  1   
1387 1687 1688  1   
1388 1688 1689  1   
1389 1688 1690  1   
1390 1688 1691  1   
1391 1692 1693  1   
1392 1693 1694  1   
1393 1693 1695  1   
1394 1693 1696  1   
1395 1697 1698  1   
1396 1698 1699  1   
1397 1698 1700  1   
1398 1698 1701  1   
1399 1702 1703  1   
1400 1703 1704  1   
1401 1703 1705  1   
1402 1703 1706  1   
1403 1707 1708  1   
1404 1708 1709  1   
1405 1708 1710  1   
1406 1708 1711  1   
1407 1712 1713  1   
1408 1713 1714  1   
1409 1713 1715  1   
1410 1713 1716  1   
1411 1717 1718  1   
1412 1718 1719  1   
1413 1718 1720  1   
1414 1718 1721  1   
1415 1722 1723  1   
1416 1723 1724  1   
1417 1723 1725  1   
1418 1723 1726  1   
1419 1727 1728  1   
1420 1728 1729  1   
1421 1728 1730  1   
1422 1728 1731  1   
1423 1732 1733  1   
1424 1733 1734  1   
1425 1733 1735  1   
1426 1733 1736  1   
1427 1737 1738  1   
1428 1738 1739  1   
1429 1738 1740  1   
1430 1738 1741  1   
1431 1742 1743  1   
1432 1743 1744  1   
1433 1743 1745  1   
1434 1743 1746  1   
1435 1747 1748  1   
1436 1748 1749  1   
1437 1748 1750  1   
1438 1748 1751  1   
1439 1752 1753  1   
1440 1753 1754  1   
1441 1753 1755  1   
1442 1753 1756  1   
1443 1757 1758  1   
1444 1758 1759  1   
1445 1758 1760  1   
1446 1758 1761  1   
1447 1762 1763  1   
1448 1763 1764  1   
1449 1763 1765  1   
1450 1763 1766  1   
1451 1767 1768  1   
1452 1768 1769  1   
1453 1768 1770  1   
1454 1768 1771  1   
1455 1772 1773  1   
1456 1773 1774  1   
1457 1773 1775  1   
1458 1773 1776  1   
1459 1777 1778  1   
1460 1778 1779  1   
1461 1778 1780  1   
1462 1778 1781  1   
1463 1782 1783  1   
1464 1783 1784  1   
1465 1783 1785  1   
1466 1783 1786  1   
1467 1787 1788  1   
1468 1788 1789  1   
1469 1788 1790  1   
1470 1788 1791  1   
1471 1792 1793  1   
1472 1793 1794  1   
1473 1793 1795  1   
1474 1793 1796  1   
1475 1797 1798  1   
1476 1798 1799  1   
1477 1798 1800  1   
1478 1798 1801  1   
1479 1802 1803  1   
1480 1803 1804  1   
1481 1803 1805  1   
1482 1803 1806  1   
1483 1807 1808  1   
1484 1808 1809  1   
1485 1808 1810  1   
1486 1808 1811  1   
1487 1812 1813  1   
1488 1813 1814  1   
1489 1813 1815  1   
1490 1813 1816  1   
1491 1817 1818  1   
1492 1818 1819  1   
1493 1818 1820  1   
1494 1818 1821  1   
1495 1822 1823  1   
1496 1823 1824  1   
1497 1823 1825  1   
1498 1823 1826  1   
1499 1827 1828  1   
1500 1828 1829  1   
1501 1828 1830  1   
1502 1828 1831  1   
1503 1832 1833  1   
1504 1833 1834  1   
1505 1833 1835  1   
1506 1833 1836  1   
1507 1837 1838  1   
1508 1838 1839  1   
1509 1838 1840  1   
1510 1838 1841  1   
1511 1842 1843  1   
1512 1843 1844  1   
1513 1843 1845  1   
1514 1843 1846  1   
1515 1847 1848  1   
1516 1848 1849  1   
1517 1848 1850  1   
1518 1848 1851  1   
1519 1852 1853  1   
1520 1853 1854  1   
1521 1853 1855  1   
1522 1853 1856  1   
1523 1857 1858  1   
1524 1858 1859  1   
1525 1858 1860  1   
1526 1858 1861  1   
1527 1862 1863  1   
1528 1863 1864  1   
1529 1863 1865  1   
1530 1863 1866  1   
1531 1867 1868  1   
1532 1868 1869  1   
1533 1868 1870  1   
1534 1868 1871  1   
1535 1872 1873  1   
1536 1873 1874  1   
1537 1873 1875  1   
1538 1873 1876  1   
1539 1877 1878  1   
1540 1878 1879  1   
1541 1878 1880  1   
1542 1878 1881  1   
1543 1882 1883  1   
1544 1883 1884  1   
1545 1883 1885  1   
1546 1883 1886  1   
1547 1887 1888  1   
1548 1888 1889  1   
1549 1888 1890  1   
1550 1888 1891  1   
1551 1892 1893  1   
1552 1893 1894  1   
1553 1893 1895  1   
1554 1893 1896  1   
1555 1897 1898  1   
1556 1898 1899  1   
1557 1898 1900  1   
1558 1898 1901  1   
1559 1902 1903  1   
1560 1903 1904  1   
1561 1903 1905  1   
1562 1903 1906  1   
1563 1907 1908  1   
1564 1908 1909  1   
1565 1908 1910  1   
1566 1908 1911  1   
1567 1912 1913  1   
1568 1913 1914  1   
1569 1913 1915  1   
1570 1913 1916  1   
1571 1917 1918  1   
1572 1918 1919  1   
1573 1918 1920  1   
1574 1918 1921  1   
1575 1922 1923  1   
1576 1923 1924  1   
1577 1923 1925  1   
1578 1923 1926  1   
1579 1927 1928  1   
1580 1928 1929  1   
1581 1928 1930  1   
1582 1928 1931  1   
1583 1932 1933  1   
1584 1933 1934  1   
1585 1933 1935  1   
1586 1933 1936  1   
1587 1937 1938  1   
1588 1938 1939  1   
1589 1938 1940  1   
1590 1938 1941  1   
1591 1942 1943  1   
1592 1943 1944  1   
1593 1943 1945  1   
1594 1943 1946  1   
1595 1947 1948  1   
1596 1948 1949  1   
1597 1948 1950  1   
1598 1948 1951  1   
1599 1952 1953  1   
1600 1953 1954  1   
1601 1953 1955  1   
1602 1953 1956  1   
1603 1957 1958  1   
1604 1958 1959  1   
1605 1958 1960  1   
1606 1958 1961  1   
1607 1962 1963  1   
1608 1963 1964  1   
1609 1963 1965  1   
1610 1963 1966  1   
1611 1967 1968  1   
1612 1968 1969  1   
1613 1968 1970  1   
1614 1968 1971  1   
1615 1972 1973  1   
1616 1973 1974  1   
1617 1973 1975  1   
1618 1973 1976  1   
1619 1977 1978  1   
1620 1978 1979  1   
1621 1978 1980  1   
1622 1978 1981  1   
1623 1982 1983  1   
1624 1983 1984  1   
1625 1983 1985  1   
1626 1983 1986  1   
1627 1987 1988  1   
1628 1988 1989  1   
1629 1988 1990  1   
1630 1988 1991  1   
1631 1992 1993  1   
1632 1993 1994  1   
1633 1993 1995  1   
1634 1993 1996  1   
1635 1997 1998  1   
1636 1998 1999  1   
1637 1998 2000  1   
1638 1998 2001  1   
1639 2002 2003  1   
1640 2003 2004  1   
1641 2003 2005  1   
1642 2003 2006  1   
1643 2007 2008  1   
1644 2008 2009  1   
1645 2008 2010  1   
1646 2008 2011  1   
1647 2012 2013  1   
1648 2013 2014  1   
1649 2013 2015  1   
1650 2013 2016  1   
1651 2017 2018  1   
1652 2018 2019  1   
1653 2018 2020  1   
1654 2018 2021  1   
1655 2022 2023  1   
1656 2023 2024  1   
1657 2023 2025  1   
1658 2023 2026  1   
1659 2027 2028  1   
1660 2028 2029  1   
1661 2028 2030  1   
1662 2028 2031  1   
1663 2032 2033  1   
1664 2033 2034  1   
1665 2033 2035  1   
1666 2033 2036  1   
1667 2037 2038  1   
1668 2038 2039  1   
1669 2038 2040  1   
1670 2038 2041  1   
1671 2042 2043  1   
1672 2043 2044  1   
1673 2043 2045  1   
1674 2043 2046  1   
1675 2047 2048  1   
1676 2048 2049  1   
1677 2048 2050  1   
1678 2048 2051  1   
1679 2052 2053  1   
1680 2053 2054  1   
1681 2053 2055  1   
1682 2053 2056  1   
1683 2057 2058  1   
1684 2058 2059  1   
1685 2058 2060  1   
1686 2058 2061  1   
1687 2062 2063  1   
1688 2063 2064  1   
1689 2063 2065  1   
1690 2063 2066  1   
1691 2067 2068  1   
1692 2068 2069  1   
1693 2068 2070  1   
1694 2068 2071  1   
1695 2072 2073  1   
1696 2073 2074  1   
1697 2073 2075  1   
1698 2073 2076  1   
1699 2077 2078  1   
1700 2078 2079  1   
1701 2078 2080  1   
1702 2078 2081  1   
1703 2082 2083  1   
1704 2083 2084  1   
1705 2083 2085  1   
1706 2083 2086  1   
1707 2087 2088  1   
1708 2088 2089  1   
1709 2088 2090  1   
1710 2088 2091  1   
1711 2092 2093  1   
1712 2093 2094  1   
1713 2093 2095  1   
1714 2093 2096  1   
1715 2097 2098  1   
1716 2098 2099  1   
1717 2098 2100  1   
1718 2098 2101  1   
1719 2102 2103  1   
1720 2103 2104  1   
1721 2103 2105  1   
1722 2103 2106  1   
1723 2107 2108  1   
1724 2108 2109  1   
1725 2108 2110  1   
1726 2108 2111  1   
1727 2112 2113  1   
1728 2113 2114  1   
1729 2113 2115  1   
1730 2113 2116  1   
1731 2117 2118  1   
1732 2118 2119  1   
1733 2118 2120  1   
1734 2118 2121  1   
1735 2122 2123  1   
1736 2123 2124  1   
1737 2123 2125  1   
1738 2123 2126  1   
1739 2127 2128  1   
1740 2128 2129  1   
1741 2128 2130  1   
1742 2128 2131  1   
1743 2132 2133  1   
1744 2133 2134  1   
1745 2133 2135  1   
1746 2133 2136  1   
1747 2137 2138  1   
1748 2138 2139  1   
1749 2138 2140  1   
1750 2138 2141  1   
1751 2142 2143  1   
1752 2143 2144  1   
1753 2143 2145  1   
1754 2143 2146  1   
1755 2147 2148  1   
1756 2148 2149  1   
1757 2148 2150  1   
1758 2148 2151  1   
1759 2152 2153  1   
1760 2153 2154  1   
1761 2153 2155  1   
1762 2153 2156  1   
1763 2157 2158  1   
1764 2158 2159  1   
1765 2158 2160  1   
1766 2158 2161  1   
1767 2162 2163  1   
1768 2163 2164  1   
1769 2163 2165  1   
1770 2163 2166  1   
1771 2167 2168  1   
1772 2168 2169  1   
1773 2168 2170  1   
1774 2168 2171  1   
1775 2172 2173  1   
1776 2173 2174  1   
1777 2173 2175  1   
1778 2173 2176  1   
1779 2177 2178  1   
1780 2178 2179  1   
1781 2178 2180  1   
1782 2178 2181  1   
1783 2182 2183  1   
1784 2183 2184  1   
1785 2183 2185  1   
1786 2183 2186  1   
1787 2187 2188  1   
1788 2188 2189  1   
1789 2188 2190  1   
1790 2188 2191  1   
1791 2192 2193  1   
1792 2193 2194  1   
1793 2193 2195  1   
1794 2193 2196  1   
1795 2197 2198  1   
1796 2198 2199  1   
1797 2198 2200  1   
1798 2198 2201  1   
1799 2202 2203  1   
1800 2203 2204  1   
1801 2203 2205  1   
1802 2203 2206  1   
1803 2207 2208  1   
1804 2208 2209  1   
1805 2208 2210  1   
1806 2208 2211  1   
1807 2212 2213  1   
1808 2213 2214  1   
1809 2213 2215  1   
1810 2213 2216  1   
1811 2217 2218  1   
1812 2218 2219  1   
1813 2218 2220  1   
1814 2218 2221  1   
1815 2222 2223  1   
1816 2223 2224  1   
1817 2223 2225  1   
1818 2223 2226  1   
1819 2227 2228  1   
1820 2228 2229  1   
1821 2228 2230  1   
1822 2228 2231  1   
1823 2232 2233  1   
1824 2233 2234  1   
1825 2233 2235  1   
1826 2233 2236  1   
1827 2237 2238  1   
1828 2238 2239  1   
1829 2238 2240  1   
1830 2238 2241  1   
1831 2242 2243  1   
1832 2243 2244  1   
1833 2243 2245  1   
1834 2243 2246  1   
1835 2247 2248  1   
1836 2248 2249  1   
1837 2248 2250  1   
1838 2248 2251  1   
1839 2252 2253  1   
1840 2253 2254  1   
1841 2253 2255  1   
1842 2253 2256  1   
1843 2257 2258  1   
1844 2258 2259  1   
1845 2258 2260  1   
1846 2258 2261  1   
1847 2262 2263  1   
1848 2263 2264  1   
1849 2263 2265  1   
1850 2263 2266  1   
1851 2267 2268  1   
1852 2268 2269  1   
1853 2268 2270  1   
1854 2268 2271  1   
1855 2272 2273  1   
1856 2273 2274  1   
1857 2273 2275  1   
1858 2273 2276  1   
1859 2277 2278  1   
1860 2278 2279  1   
1861 2278 2280  1   
1862 2278 2281  1   
1863 2282 2283  1   
1864 2283 2284  1   
1865 2283 2285  1   
1866 2283 2286  1   
1867 2287 2288  1   
1868 2288 2289  1   
1869 2288 2290  1   
1870 2288 2291  1   
1871 2292 2293  1   
1872 2293 2294  1   
1873 2293 2295  1   
1874 2293 2296  1   
1875 2297 2298  1   
1876 2298 2299  1   
1877 2298 2300  1   
1878 2298 2301  1   
1879 2302 2303  1   
1880 2303 2304  1   
1881 2303 2305  1   
1882 2303 2306  1   
1883 2307 2308  1   
1884 2308 2309  1   
1885 2308 2310  1   
1886 2308 2311  1   
1887 2312 2313  1   
1888 2313 2314  1   
1889 2313 2315  1   
1890 2313 2316  1   
1891 2317 2318  1   
1892 2318 2319  1   
1893 2318 2320  1   
1894 2318 2321  1   
1895 2322 2323  1   
1896 2323 2324  1   
1897 2323 2325  1   
1898 2323 2326  1   
1899 2327 2328  1   
1900 2328 2329  1   
1901 2328 2330  1   
1902 2328 2331  1   
1903 2332 2333  1   
1904 2333 2334  1   
1905 2333 2335  1   
1906 2333 2336  1   
1907 2337 2338  1   
1908 2338 2339  1   
1909 2338 2340  1   
1910 2338 2341  1   
1911 2342 2343  1   
1912 2343 2344  1   
1913 2343 2345  1   
1914 2343 2346  1   
1915 2347 2348  1   
1916 2348 2349  1   
1917 2348 2350  1   
1918 2348 2351  1   
1919 2352 2353  1   
1920 2353 2354  1   
1921 2353 2355  1   
1922 2353 2356  1   
1923 2357 2358  1   
1924 2358 2359  1   
1925 2358 2360  1   
1926 2358 2361  1   
1927 2362 2363  1   
1928 2363 2364  1   
1929 2363 2365  1   
1930 2363 2366  1   
1931 2367 2368  1   
1932 2368 2369  1   
1933 2368 2370  1   
1934 2368 2371  1   
1935 2372 2373  1   
1936 2373 2374  1   
1937 2373 2375  1   
1938 2373 2376  1   
1939 2377 2378  1   
1940 2378 2379  1   
1941 2378 2380  1   
1942 2378 2381  1   
1943 2382 2383  1   
1944 2383 2384  1   
1945 2383 2385  1   
1946 2383 2386  1   
1947 2387 2388  1   
1948 2388 2389  1   
1949 2388 2390  1   
1950 2388 2391  1   
1951 2392 2393  1   
1952 2393 2394  1   
1953 2393 2395  1   
1954 2393 2396  1   
1955 2397 2398  1   
1956 2398 2399  1   
1957 2398 2400  1   
1958 2398 2401  1   
1959 2402 2403  1   
1960 2403 2404  1   
1961 2403 2405  1   
1962 2403 2406  1   
1963 2407 2408  1   
1964 2408 2409  1   
1965 2408 2410  1   
1966 2408 2411  1   
1967 2412 2413  1   
1968 2413 2414  1   
1969 2413 2415  1   
1970 2413 2416  1   
1971 2417 2418  1   
1972 2418 2419  1   
1973 2418 2420  1   
1974 2418 2421  1   
1975 2422 2423  1   
1976 2423 2424  1   
1977 2423 2425  1   
1978 2423 2426  1   
1979 2427 2428  1   
1980 2428 2429  1   
1981 2428 2430  1   
1982 2428 2431  1   
1983 2432 2433  1   
1984 2433 2434  1   
1985 2433 2435  1   
1986 2433 2436  1   
1987 2437 2438  1   
1988 2438 2439  1   
1989 2438 2440  1   
1990 2438 2441  1   
1991 2442 2443  1   
1992 2443 2444  1   
1993 2443 2445  1   
1994 2443 2446  1   
1995 2447 2448  1   
1996 2448 2449  1   
1997 2448 2450  1   
1998 2448 2451  1   
1999 2452 2453  1   
2000 2453 2454  1   
2001 2453 2455  1   
2002 2453 2456  1   
2003 2457 2458  1   
2004 2458 2459  1   
2005 2458 2460  1   
2006 2458 2461  1   
2007 2462 2463  1   
2008 2463 2464  1   
2009 2463 2465  1   
2010 2463 2466  1   
2011 2467 2468  1   
2012 2468 2469  1   
2013 2468 2470  1   
2014 2468 2471  1   
2015 2472 2473  1   
2016 2473 2474  1   
2017 2473 2475  1   
2018 2473 2476  1   
2019 2477 2478  1   
2020 2478 2479  1   
2021 2478 2480  1   
2022 2478 2481  1   
2023 2482 2483  1   
2024 2483 2484  1   
2025 2483 2485  1   
2026 2483 2486  1   
2027 2487 2488  1   
2028 2488 2489  1   
2029 2488 2490  1   
2030 2488 2491  1   
2031 2492 2493  1   
2032 2493 2494  1   
2033 2493 2495  1   
2034 2493 2496  1   
2035 2497 2498  1   
2036 2498 2499  1   
2037 2498 2500  1   
2038 2498 2501  1   
2039 2502 2503  1   
2040 2503 2504  1   
2041 2503 2505  1   
2042 2503 2506  1   
2043 2507 2508  1   
2044 2508 2509  1   
2045 2508 2510  1   
2046 2508 2511  1   
2047 2512 2513  1   
2048 2513 2514  1   
2049 2513 2515  1   
2050 2513 2516  1   
2051 2517 2518  1   
2052 2518 2519  1   
2053 2518 2520  1   
2054 2518 2521  1   
2055 2522 2523  1   
2056 2523 2524  1   
2057 2523 2525  1   
2058 2523 2526  1   
2059 2527 2528  1   
2060 2528 2529  1   
2061 2528 2530  1   
2062 2528 2531  1   
2063 2532 2533  1   
2064 2533 2534  1   
2065 2533 2535  1   
2066 2533 2536  1   
2067 2537 2538  1   
2068 2538 2539  1   
2069 2538 2540  1   
2070 2538 2541  1   
2071 2542 2543  1   
2072 2543 2544  1   
2073 2543 2545  1   
2074 2543 2546  1   
2075 2547 2548  1   
2076 2548 2549  1   
2077 2548 2550  1   
2078 2548 2551  1   
2079 2552 2553  1   
2080 2553 2554  1   
2081 2553 2555  1   
2082 2553 2556  1   
2083 2557 2558  1   
2084 2558 2559  1   
2085 2558 2560  1   
2086 2558 2561  1   
2087 2562 2563  1   
2088 2563 2564  1   
2089 2563 2565  1   
2090 2563 2566  1   
2091 2567 2568  1   
2092 2568 2569  1   
2093 2568 2570  1   
2094 2568 2571  1   
2095 2572 2573  1   
2096 2573 2574  1   
2097 2573 2575  1   
2098 2573 2576  1   
2099 2577 2578  1   
2100 2578 2579  1   
2101 2578 2580  1   
2102 2578 2581  1   
2103 2582 2583  1   
2104 2583 2584  1   
2105 2583 2585  1   
2106 2583 2586  1   
2107 2587 2588  1   
2108 2588 2589  1   
2109 2588 2590  1   
2110 2588 2591  1   
2111 2592 2593  1   
2112 2593 2594  1   
2113 2593 2595  1   
2114 2593 2596  1   
2115 2597 2598  1   
2116 2598 2599  1   
2117 2598 2600  1   
2118 2598 2601  1   
2119 2602 2603  1   
2120 2603 2604  1   
2121 2603 2605  1   
2122 2603 2606  1   
2123 2607 2608  1   
2124 2608 2609  1   
2125 2608 2610  1   
2126 2608 2611  1   
2127 2612 2613  1   
2128 2613 2614  1   
2129 2613 2615  1   
2130 2613 2616  1   
2131 2617 2618  1   
2132 2618 2619  1   
2133 2618 2620  1   
2134 2618 2621  1   
2135 2622 2623  1   
2136 2623 2624  1   
2137 2623 2625  1   
2138 2623 2626  1   
2139 2627 2628  1   
2140 2628 2629  1   
2141 2628 2630  1   
2142 2628 2631  1   
2143 2632 2633  1   
2144 2633 2634  1   
2145 2633 2635  1   
2146 2633 2636  1   
2147 2637 2638  1   
2148 2638 2639  1   
2149 2638 2640  1   
2150 2638 2641  1   
2151 2642 2643  1   
2152 2643 2644  1   
2153 2643 2645  1   
2154 2643 2646  1   
2155 2647 2648  1   
2156 2648 2649  1   
2157 2648 2650  1   
2158 2648 2651  1   
2159 2652 2653  1   
2160 2653 2654  1   
2161 2653 2655  1   
2162 2653 2656  1   
@<TRIPOS>SUBSTRUCTURE
  1 ****   86 GROUP 4 Q1 **** 0
  2 CCL4  168 GROUP 4 Q2 **** 0
  3 CCL4  173 GROUP 4 Q2 **** 0
  4 CCL4  178 GROUP 4 Q2 **** 0
  5 CCL4  183 GROUP 4 Q2 **** 0
  6 CCL4  188 GROUP 4 Q2 **** 0
  7 CCL4  193 GROUP 4 Q2 **** 0
  8 CCL4  198 GROUP 4 Q2 **** 0
  9 CCL4  203 GROUP 4 Q2 **** 0
 10 CCL4  208 GROUP 4 Q2 **** 0
 11 CCL4  213 GROUP 4 Q2 **** 0
 12 CCL4  218 GROUP 4 Q2 **** 0
 13 CCL4  223 GROUP 4 Q2 **** 0
 14 CCL4  228 GROUP 4 Q2 **** 0
 15 CCL4  233 GROUP 4 Q2 **** 0
 16 CCL4  238 GROUP 4 Q2 **** 0
 17 CCL4  243 GROUP 4 Q2 **** 0
 18 CCL4  248 GROUP 4 Q2 **** 0
 19 CCL4  253 GROUP 4 Q2 **** 0
 20 CCL4  258 GROUP 4 Q2 **** 0
 21 CCL4  263 GROUP 4 Q2 **** 0
 22 CCL4  268 GROUP 4 Q2 **** 0
 23 CCL4  273 GROUP 4 Q2 **** 0
 24 CCL4  278 GROUP 4 Q2 **** 0
 25 CCL4  283 GROUP 4 Q2 **** 0
 26 CCL4  288 GROUP 4 Q2 **** 0
 27 CCL4  293 GROUP 4 Q2 **** 0
 28 CCL4  298 GROUP 4 Q2 **** 0
 29 CCL4  303 GROUP 4 Q2 **** 0
 30 CCL4  308 GROUP 4 Q2 **** 0
 31 CCL4  313 GROUP 4 Q2 **** 0
 32 CCL4  318 GROUP 4 Q2 **** 0
 33 CCL4  323 GROUP 4 Q2 **** 0
 34 CCL4  328 GROUP 4 Q2 **** 0
 35 CCL4  333 GROUP 4 Q2 **** 0
 36 CCL4  338 GROUP 4 Q2 **** 0
 37 CCL4  343 GROUP 4 Q2 **** 0
 38 CCL4  348 GROUP 4 Q2 **** 0
 39 CCL4  353 GROUP 4 Q2 **** 0
 40 CCL4  358 GROUP 4 Q2 **** 0
 41 CCL4  363 GROUP 4 Q2 **** 0
 42 CCL4  368 GROUP 4 Q2 **** 0
 43 CCL4  373 GROUP 4 Q2 **** 0
 44 CCL4  378 GROUP 4 Q2 **** 0
 45 CCL4  383 GROUP 4 Q2 **** 0
 46 CCL4  388 GROUP 4 Q2 **** 0
 47 CCL4  393 GROUP 4 Q2 **** 0
 48 CCL4  398 GROUP 4 Q2 **** 0
 49 CCL4  403 GROUP 4 Q2 **** 0
 50 CCL4  408 GROUP 4 Q2 **** 0
 51 CCL4  413 GROUP 4 Q2 **** 0
 52 CCL4  418 GROUP 4 Q2 **** 0
 53 CCL4  423 GROUP 4 Q2 **** 0
 54 CCL4  428 GROUP 4 Q2 **** 0
 55 CCL4  433 GROUP 4 Q2 **** 0
 56 CCL4  438 GROUP 4 Q2 **** 0
 57 CCL4  443 GROUP 4 Q2 **** 0
 58 CCL4  448 GROUP 4 Q2 **** 0
 59 CCL4  453 GROUP 4 Q2 **** 0
 60 CCL4  458 GROUP 4 Q2 **** 0
 61 CCL4  463 GROUP 4 Q2 **** 0
 62 CCL4  468 GROUP 4 Q2 **** 0
 63 CCL4  473 GROUP 4 Q2 **** 0
 64 CCL4  478 GROUP 4 Q2 **** 0
 65 CCL4  483 GROUP 4 Q2 **** 0
 66 CCL4  488 GROUP 4 Q2 **** 0
 67 CCL4  493 GROUP 4 Q2 **** 0
 68 CCL4  498 GROUP 4 Q2 **** 0
 69 CCL4  503 GROUP 4 Q2 **** 0
 70 CCL4  508 GROUP 4 Q2 **** 0
 71 CCL4  513 GROUP 4 Q2 **** 0
 72 CCL4  518 GROUP 4 Q2 **** 0
 73 CCL4  523 GROUP 4 Q2 **** 0
 74 CCL4  528 GROUP 4 Q2 **** 0
 75 CCL4  533 GROUP 4 Q2 **** 0
 76 CCL4  538 GROUP 4 Q2 **** 0
 77 CCL4  543 GROUP 4 Q2 **** 0
 78 CCL4  548 GROUP 4 Q2 **** 0
 79 CCL4  553 GROUP 4 Q2 **** 0
 80 CCL4  558 GROUP 4 Q2 **** 0
 81 CCL4  563 GROUP 4 Q2 **** 0
 82 CCL4  568 GROUP 4 Q2 **** 0
 83 CCL4  573 GROUP 4 Q2 **** 0
 84 CCL4  578 GROUP 4 Q2 **** 0
 85 CCL4  583 GROUP 4 Q2 **** 0
 86 CCL4  588 GROUP 4 Q2 **** 0
 87 CCL4  593 GROUP 4 Q2 **** 0
 88 CCL4  598 GROUP 4 Q2 **** 0
 89 CCL4  603 GROUP 4 Q2 **** 0
 90 CCL4  608 GROUP 4 Q2 **** 0
 91 CCL4  613 GROUP 4 Q2 **** 0
 92 CCL4  618 GROUP 4 Q2 **** 0
 93 CCL4  623 GROUP 4 Q2 **** 0
 94 CCL4  628 GROUP 4 Q2 **** 0
 95 CCL4  633 GROUP 4 Q2 **** 0
 96 CCL4  638 GROUP 4 Q2 **** 0
 97 CCL4  643 GROUP 4 Q2 **** 0
 98 CCL4  648 GROUP 4 Q2 **** 0
 99 CCL4  653 GROUP 4 Q2 **** 0
100 CCL4  658 GROUP 4 Q2 **** 0
101 CCL4  663 GROUP 4 Q2 **** 0
102 CCL4  668 GROUP 4 Q2 **** 0
103 CCL4  673 GROUP 4 Q2 **** 0
104 CCL4  678 GROUP 4 Q2 **** 0
105 CCL4  683 GROUP 4 Q2 **** 0
106 CCL4  688 GROUP 4 Q2 **** 0
107 CCL4  693 GROUP 4 Q2 **** 0
108 CCL4  698 GROUP 4 Q2 **** 0
109 CCL4  703 GROUP 4 Q2 **** 0
110 CCL4  708 GROUP 4 Q2 **** 0
111 CCL4  713 GROUP 4 Q2 **** 0
112 CCL4  718 GROUP 4 Q2 **** 0
113 CCL4  723 GROUP 4 Q2 **** 0
114 CCL4  728 GROUP 4 Q2 **** 0
115 CCL4  733 GROUP 4 Q2 **** 0
116 CCL4  738 GROUP 4 Q2 **** 0
117 CCL4  743 GROUP 4 Q2 **** 0
118 CCL4  748 GROUP 4 Q2 **** 0
119 CCL4  753 GROUP 4 Q2 **** 0
120 CCL4  758 GROUP 4 Q2 **** 0
121 CCL4  763 GROUP 4 Q2 **** 0
122 CCL4  768 GROUP 4 Q2 **** 0
123 CCL4  773 GROUP 4 Q2 **** 0
124 CCL4  778 GROUP 4 Q2 **** 0
125 CCL4  783 GROUP 4 Q2 **** 0
126 CCL4  788 GROUP 4 Q2 **** 0
127 CCL4  793 GROUP 4 Q2 **** 0
128 CCL4  798 GROUP 4 Q2 **** 0
129 CCL4  803 GROUP 4 Q2 **** 0
130 CCL4  808 GROUP 4 Q2 **** 0
131 CCL4  813 GROUP 4 Q2 **** 0
132 CCL4  818 GROUP 4 Q2 **** 0
133 CCL4  823 GROUP 4 Q2 **** 0
134 CCL4  828 GROUP 4 Q2 **** 0
135 CCL4  833 GROUP 4 Q2 **** 0
136 CCL4  838 GROUP 4 Q2 **** 0
137 CCL4  843 GROUP 4 Q2 **** 0
138 CCL4  848 GROUP 4 Q2 **** 0
139 CCL4  853 GROUP 4 Q2 **** 0
140 CCL4  858 GROUP 4 Q2 **** 0
141 CCL4  863 GROUP 4 Q2 **** 0
142 CCL4  868 GROUP 4 Q2 **** 0
143 CCL4  873 GROUP 4 Q2 **** 0
144 CCL4  878 GROUP 4 Q2 **** 0
145 CCL4  883 GROUP 4 Q2 **** 0
146 CCL4  888 GROUP 4 Q2 **** 0
147 CCL4  893 GROUP 4 Q2 **** 0
148 CCL4  898 GROUP 4 Q2 **** 0
149 CCL4  903 GROUP 4 Q2 **** 0
150 CCL4  908 GROUP 4 Q2 **** 0
151 CCL4  913 GROUP 4 Q2 **** 0
152 CCL4  918 GROUP 4 Q2 **** 0
153 CCL4  923 GROUP 4 Q2 **** 0
154 CCL4  928 GROUP 4 Q2 **** 0
155 CCL4  933 GROUP 4 Q2 **** 0
156 CCL4  938 GROUP 4 Q2 **** 0
157 CCL4  943 GROUP 4 Q2 **** 0
158 CCL4  948 GROUP 4 Q2 **** 0
159 CCL4  953 GROUP 4 Q2 **** 0
160 CCL4  958 GROUP 4 Q2 **** 0
161 CCL4  963 GROUP 4 Q2 **** 0
162 CCL4  968 GROUP 4 Q2 **** 0
163 CCL4  973 GROUP 4 Q2 **** 0
164 CCL4  978 GROUP 4 Q2 **** 0
165 CCL4  983 GROUP 4 Q2 **** 0
166 CCL4  988 GROUP 4 Q2 **** 0
167 CCL4  993 GROUP 4 Q2 **** 0
168 CCL4  998 GROUP 4 Q2 **** 0
169 CCL4 1003 GROUP 4 Q2 **** 0
170 CCL4 1008 GROUP 4 Q2 **** 0
171 CCL4 1013 GROUP 4 Q2 **** 0
172 CCL4 1018 GROUP 4 Q2 **** 0
173 CCL4 1023 GROUP 4 Q2 **** 0
174 CCL4 1028 GROUP 4 Q2 **** 0
175 CCL4 1033 GROUP 4 Q2 **** 0
176 CCL4 1038 GROUP 4 Q2 **** 0
177 CCL4 1043 GROUP 4 Q2 **** 0
178 CCL4 1048 GROUP 4 Q2 **** 0
179 CCL4 1053 GROUP 4 Q2 **** 0
180 CCL4 1058 GROUP 4 Q2 **** 0
181 CCL4 1063 GROUP 4 Q2 **** 0
182 CCL4 1068 GROUP 4 Q2 **** 0
183 CCL4 1073 GROUP 4 Q2 **** 0
184 CCL4 1078 GROUP 4 Q2 **** 0
185 CCL4 1083 GROUP 4 Q2 **** 0
186 CCL4 1088 GROUP 4 Q2 **** 0
187 CCL4 1093 GROUP 4 Q2 **** 0
188 CCL4 1098 GROUP 4 Q2 **** 0
189 CCL4 1103 GROUP 4 Q2 **** 0
190 CCL4 1108 GROUP 4 Q2 **** 0
191 CCL4 1113 GROUP 4 Q2 **** 0
192 CCL4 1118 GROUP 4 Q2 **** 0
193 CCL4 1123 GROUP 4 Q2 **** 0
194 CCL4 1128 GROUP 4 Q2 **** 0
195 CCL4 1133 GROUP 4 Q2 **** 0
196 CCL4 1138 GROUP 4 Q2 **** 0
197 CCL4 1143 GROUP 4 Q2 **** 0
198 CCL4 1148 GROUP 4 Q2 **** 0
199 CCL4 1153 GROUP 4 Q2 **** 0
200 CCL4 1158 GROUP 4 Q2 **** 0
201 CCL4 1163 GROUP 4 Q2 **** 0
202 CCL4 1168 GROUP 4 Q2 **** 0
203 CCL4 1173 GROUP 4 Q2 **** 0
204 CCL4 1178 GROUP 4 Q2 **** 0
205 CCL4 1183 GROUP 4 Q2 **** 0
206 CCL4 1188 GROUP 4 Q2 **** 0
207 CCL4 1193 GROUP 4 Q2 **** 0
208 CCL4 1198 GROUP 4 Q2 **** 0
209 CCL4 1203 GROUP 4 Q2 **** 0
210 CCL4 1208 GROUP 4 Q2 **** 0
211 CCL4 1213 GROUP 4 Q2 **** 0
212 CCL4 1218 GROUP 4 Q2 **** 0
213 CCL4 1223 GROUP 4 Q2 **** 0
214 CCL4 1228 GROUP 4 Q2 **** 0
215 CCL4 1233 GROUP 4 Q2 **** 0
216 CCL4 1238 GROUP 4 Q2 **** 0
217 CCL4 1243 GROUP 4 Q2 **** 0
218 CCL4 1248 GROUP 4 Q2 **** 0
219 CCL4 1253 GROUP 4 Q2 **** 0
220 CCL4 1258 GROUP 4 Q2 **** 0
221 CCL4 1263 GROUP 4 Q2 **** 0
222 CCL4 1268 GROUP 4 Q2 **** 0
223 CCL4 1273 GROUP 4 Q2 **** 0
224 CCL4 1278 GROUP 4 Q2 **** 0
225 CCL4 1283 GROUP 4 Q2 **** 0
226 CCL4 1288 GROUP 4 Q2 **** 0
227 CCL4 1293 GROUP 4 Q2 **** 0
228 CCL4 1298 GROUP 4 Q2 **** 0
229 CCL4 1303 GROUP 4 Q2 **** 0
230 CCL4 1308 GROUP 4 Q2 **** 0
231 CCL4 1313 GROUP 4 Q2 **** 0
232 CCL4 1318 GROUP 4 Q2 **** 0
233 CCL4 1323 GROUP 4 Q2 **** 0
234 CCL4 1328 GROUP 4 Q2 **** 0
235 CCL4 1333 GROUP 4 Q2 **** 0
236 CCL4 1338 GROUP 4 Q2 **** 0
237 CCL4 1343 GROUP 4 Q2 **** 0
238 CCL4 1348 GROUP 4 Q2 **** 0
239 CCL4 1353 GROUP 4 Q2 **** 0
240 CCL4 1358 GROUP 4 Q2 **** 0
241 CCL4 1363 GROUP 4 Q2 **** 0
242 CCL4 1368 GROUP 4 Q2 **** 0
243 CCL4 1373 GROUP 4 Q2 **** 0
244 CCL4 1378 GROUP 4 Q2 **** 0
245 CCL4 1383 GROUP 4 Q2 **** 0
246 CCL4 1388 GROUP 4 Q2 **** 0
247 CCL4 1393 GROUP 4 Q2 **** 0
248 CCL4 1398 GROUP 4 Q2 **** 0
249 CCL4 1403 GROUP 4 Q2 **** 0
250 CCL4 1408 GROUP 4 Q2 **** 0
251 CCL4 1413 GROUP 4 Q2 **** 0
252 CCL4 1418 GROUP 4 Q2 **** 0
253 CCL4 1423 GROUP 4 Q2 **** 0
254 CCL4 1428 GROUP 4 Q2 **** 0
255 CCL4 1433 GROUP 4 Q2 **** 0
256 CCL4 1438 GROUP 4 Q2 **** 0
257 CCL4 1443 GROUP 4 Q2 **** 0
258 CCL4 1448 GROUP 4 Q2 **** 0
259 CCL4 1453 GROUP 4 Q2 **** 0
260 CCL4 1458 GROUP 4 Q2 **** 0
261 CCL4 1463 GROUP 4 Q2 **** 0
262 CCL4 1468 GROUP 4 Q2 **** 0
263 CCL4 1473 GROUP 4 Q2 **** 0
264 CCL4 1478 GROUP 4 Q2 **** 0
265 CCL4 1483 GROUP 4 Q2 **** 0
266 CCL4 1488 GROUP 4 Q2 **** 0
267 CCL4 1493 GROUP 4 Q2 **** 0
268 CCL4 1498 GROUP 4 Q2 **** 0
269 CCL4 1503 GROUP 4 Q2 **** 0
270 CCL4 1508 GROUP 4 Q2 **** 0
271 CCL4 1513 GROUP 4 Q2 **** 0
272 CCL4 1518 GROUP 4 Q2 **** 0
273 CCL4 1523 GROUP 4 Q2 **** 0
274 CCL4 1528 GROUP 4 Q2 **** 0
275 CCL4 1533 GROUP 4 Q2 **** 0
276 CCL4 1538 GROUP 4 Q2 **** 0
277 CCL4 1543 GROUP 4 Q2 **** 0
278 CCL4 1548 GROUP 4 Q2 **** 0
279 CCL4 1553 GROUP 4 Q2 **** 0
280 CCL4 1558 GROUP 4 Q2 **** 0
281 CCL4 1563 GROUP 4 Q2 **** 0
282 CCL4 1568 GROUP 4 Q2 **** 0
283 CCL4 1573 GROUP 4 Q2 **** 0
284 CCL4 1578 GROUP 4 Q2 **** 0
285 CCL4 1583 GROUP 4 Q2 **** 0
286 CCL4 1588 GROUP 4 Q2 **** 0
287 CCL4 1593 GROUP 4 Q2 **** 0
288 CCL4 1598 GROUP 4 Q2 **** 0
289 CCL4 1603 GROUP 4 Q2 **** 0
290 CCL4 1608 GROUP 4 Q2 **** 0
291 CCL4 1613 GROUP 4 Q2 **** 0
292 CCL4 1618 GROUP 4 Q2 **** 0
293 CCL4 1623 GROUP 4 Q2 **** 0
294 CCL4 1628 GROUP 4 Q2 **** 0
295 CCL4 1633 GROUP 4 Q2 **** 0
296 CCL4 1638 GROUP 4 Q2 **** 0
297 CCL4 1643 GROUP 4 Q2 **** 0
298 CCL4 1648 GROUP 4 Q2 **** 0
299 CCL4 1653 GROUP 4 Q2 **** 0
300 CCL4 1658 GROUP 4 Q2 **** 0
301 CCL4 1663 GROUP 4 Q2 **** 0
302 CCL4 1668 GROUP 4 Q2 **** 0
303 CCL4 1673 GROUP 4 Q2 **** 0
304 CCL4 1678 GROUP 4 Q2 **** 0
305 CCL4 1683 GROUP 4 Q2 **** 0
306 CCL4 1688 GROUP 4 Q2 **** 0
307 CCL4 1693 GROUP 4 Q2 **** 0
308 CCL4 1698 GROUP 4 Q2 **** 0
309 CCL4 1703 GROUP 4 Q2 **** 0
310 CCL4 1708 GROUP 4 Q2 **** 0
311 CCL4 1713 GROUP 4 Q2 **** 0
312 CCL4 1718 GROUP 4 Q2 **** 0
313 CCL4 1723 GROUP 4 Q2 **** 0
314 CCL4 1728 GROUP 4 Q2 **** 0
315 CCL4 1733 GROUP 4 Q2 **** 0
316 CCL4 1738 GROUP 4 Q2 **** 0
317 CCL4 1743 GROUP 4 Q2 **** 0
318 CCL4 1748 GROUP 4 Q2 **** 0
319 CCL4 1753 GROUP 4 Q2 **** 0
320 CCL4 1758 GROUP 4 Q2 **** 0
321 CCL4 1763 GROUP 4 Q2 **** 0
322 CCL4 1768 GROUP 4 Q2 **** 0
323 CCL4 1773 GROUP 4 Q2 **** 0
324 CCL4 1778 GROUP 4 Q2 **** 0
325 CCL4 1783 GROUP 4 Q2 **** 0
326 CCL4 1788 GROUP 4 Q2 **** 0
327 CCL4 1793 GROUP 4 Q2 **** 0
328 CCL4 1798 GROUP 4 Q2 **** 0
329 CCL4 1803 GROUP 4 Q2 **** 0
330 CCL4 1808 GROUP 4 Q2 **** 0
331 CCL4 1813 GROUP 4 Q2 **** 0
332 CCL4 1818 GROUP 4 Q2 **** 0
333 CCL4 1823 GROUP 4 Q2 **** 0
334 CCL4 1828 GROUP 4 Q2 **** 0
335 CCL4 1833 GROUP 4 Q2 **** 0
336 CCL4 1838 GROUP 4 Q2 **** 0
337 CCL4 1843 GROUP 4 Q2 **** 0
338 CCL4 1848 GROUP 4 Q2 **** 0
339 CCL4 1853 GROUP 4 Q2 **** 0
340 CCL4 1858 GROUP 4 Q2 **** 0
341 CCL4 1863 GROUP 4 Q2 **** 0
342 CCL4 1868 GROUP 4 Q2 **** 0
343 CCL4 1873 GROUP 4 Q2 **** 0
344 CCL4 1878 GROUP 4 Q2 **** 0
345 CCL4 1883 GROUP 4 Q2 **** 0
346 CCL4 1888 GROUP 4 Q2 **** 0
347 CCL4 1893 GROUP 4 Q2 **** 0
348 CCL4 1898 GROUP 4 Q2 **** 0
349 CCL4 1903 GROUP 4 Q2 **** 0
350 CCL4 1908 GROUP 4 Q2 **** 0
351 CCL4 1913 GROUP 4 Q2 **** 0
352 CCL4 1918 GROUP 4 Q2 **** 0
353 CCL4 1923 GROUP 4 Q2 **** 0
354 CCL4 1928 GROUP 4 Q2 **** 0
355 CCL4 1933 GROUP 4 Q2 **** 0
356 CCL4 1938 GROUP 4 Q2 **** 0
357 CCL4 1943 GROUP 4 Q2 **** 0
358 CCL4 1948 GROUP 4 Q2 **** 0
359 CCL4 1953 GROUP 4 Q2 **** 0
360 CCL4 1958 GROUP 4 Q2 **** 0
361 CCL4 1963 GROUP 4 Q2 **** 0
362 CCL4 1968 GROUP 4 Q2 **** 0
363 CCL4 1973 GROUP 4 Q2 **** 0
364 CCL4 1978 GROUP 4 Q2 **** 0
365 CCL4 1983 GROUP 4 Q2 **** 0
366 CCL4 1988 GROUP 4 Q2 **** 0
367 CCL4 1993 GROUP 4 Q2 **** 0
368 CCL4 1998 GROUP 4 Q2 **** 0
369 CCL4 2003 GROUP 4 Q2 **** 0
370 CCL4 2008 GROUP 4 Q2 **** 0
371 CCL4 2013 GROUP 4 Q2 **** 0
372 CCL4 2018 GROUP 4 Q2 **** 0
373 CCL4 2023 GROUP 4 Q2 **** 0
374 CCL4 2028 GROUP 4 Q2 **** 0
375 CCL4 2033 GROUP 4 Q2 **** 0
376 CCL4 2038 GROUP 4 Q2 **** 0
377 CCL4 2043 GROUP 4 Q2 **** 0
378 CCL4 2048 GROUP 4 Q2 **** 0
379 CCL4 2053 GROUP 4 Q2 **** 0
380 CCL4 2058 GROUP 4 Q2 **** 0
381 CCL4 2063 GROUP 4 Q2 **** 0
382 CCL4 2068 GROUP 4 Q2 **** 0
383 CCL4 2073 GROUP 4 Q2 **** 0
384 CCL4 2078 GROUP 4 Q2 **** 0
385 CCL4 2083 GROUP 4 Q2 **** 0
386 CCL4 2088 GROUP 4 Q2 **** 0
387 CCL4 2093 GROUP 4 Q2 **** 0
388 CCL4 2098 GROUP 4 Q2 **** 0
389 CCL4 2103 GROUP 4 Q2 **** 0
390 CCL4 2108 GROUP 4 Q2 **** 0
391 CCL4 2113 GROUP 4 Q2 **** 0
392 CCL4 2118 GROUP 4 Q2 **** 0
393 CCL4 2123 GROUP 4 Q2 **** 0
394 CCL4 2128 GROUP 4 Q2 **** 0
395 CCL4 2133 GROUP 4 Q2 **** 0
396 CCL4 2138 GROUP 4 Q2 **** 0
397 CCL4 2143 GROUP 4 Q2 **** 0
398 CCL4 2148 GROUP 4 Q2 **** 0
399 CCL4 2153 GROUP 4 Q2 **** 0
400 CCL4 2158 GROUP 4 Q2 **** 0
401 CCL4 2163 GROUP 4 Q2 **** 0
402 CCL4 2168 GROUP 4 Q2 **** 0
403 CCL4 2173 GROUP 4 Q2 **** 0
404 CCL4 2178 GROUP 4 Q2 **** 0
405 CCL4 2183 GROUP 4 Q2 **** 0
406 CCL4 2188 GROUP 4 Q2 **** 0
407 CCL4 2193 GROUP 4 Q2 **** 0
408 CCL4 2198 GROUP 4 Q2 **** 0
409 CCL4 2203 GROUP 4 Q2 **** 0
410 CCL4 2208 GROUP 4 Q2 **** 0
411 CCL4 2213 GROUP 4 Q2 **** 0
412 CCL4 2218 GROUP 4 Q2 **** 0
413 CCL4 2223 GROUP 4 Q2 **** 0
414 CCL4 2228 GROUP 4 Q2 **** 0
415 CCL4 2233 GROUP 4 Q2 **** 0
416 CCL4 2238 GROUP 4 Q2 **** 0
417 CCL4 2243 GROUP 4 Q2 **** 0
418 CCL4 2248 GROUP 4 Q2 **** 0
419 CCL4 2253 GROUP 4 Q2 **** 0
420 CCL4 2258 GROUP 4 Q2 **** 0
421 CCL4 2263 GROUP 4 Q2 **** 0
422 CCL4 2268 GROUP 4 Q2 **** 0
423 CCL4 2273 GROUP 4 Q2 **** 0
424 CCL4 2278 GROUP 4 Q2 **** 0
425 CCL4 2283 GROUP 4 Q2 **** 0
426 CCL4 2288 GROUP 4 Q2 **** 0
427 CCL4 2293 GROUP 4 Q2 **** 0
428 CCL4 2298 GROUP 4 Q2 **** 0
429 CCL4 2303 GROUP 4 Q2 **** 0
430 CCL4 2308 GROUP 4 Q2 **** 0
431 CCL4 2313 GROUP 4 Q2 **** 0
432 CCL4 2318 GROUP 4 Q2 **** 0
433 CCL4 2323 GROUP 4 Q2 **** 0
434 CCL4 2328 GROUP 4 Q2 **** 0
435 CCL4 2333 GROUP 4 Q2 **** 0
436 CCL4 2338 GROUP 4 Q2 **** 0
437 CCL4 2343 GROUP 4 Q2 **** 0
438 CCL4 2348 GROUP 4 Q2 **** 0
439 CCL4 2353 GROUP 4 Q2 **** 0
440 CCL4 2358 GROUP 4 Q2 **** 0
441 CCL4 2363 GROUP 4 Q2 **** 0
442 CCL4 2368 GROUP 4 Q2 **** 0
443 CCL4 2373 GROUP 4 Q2 **** 0
444 CCL4 2378 GROUP 4 Q2 **** 0
445 CCL4 2383 GROUP 4 Q2 **** 0
446 CCL4 2388 GROUP 4 Q2 **** 0
447 CCL4 2393 GROUP 4 Q2 **** 0
448 CCL4 2398 GROUP 4 Q2 **** 0
449 CCL4 2403 GROUP 4 Q2 **** 0
450 CCL4 2408 GROUP 4 Q2 **** 0
451 CCL4 2413 GROUP 4 Q2 **** 0
452 CCL4 2418 GROUP 4 Q2 **** 0
453 CCL4 2423 GROUP 4 Q2 **** 0
454 CCL4 2428 GROUP 4 Q2 **** 0
455 CCL4 2433 GROUP 4 Q2 **** 0
456 CCL4 2438 GROUP 4 Q2 **** 0
457 CCL4 2443 GROUP 4 Q2 **** 0
458 CCL4 2448 GROUP 4 Q2 **** 0
459 CCL4 2453 GROUP 4 Q2 **** 0
460 CCL4 2458 GROUP 4 Q2 **** 0
461 CCL4 2463 GROUP 4 Q2 **** 0
462 CCL4 2468 GROUP 4 Q2 **** 0
463 CCL4 2473 GROUP 4 Q2 **** 0
464 CCL4 2478 GROUP 4 Q2 **** 0
465 CCL4 2483 GROUP 4 Q2 **** 0
466 CCL4 2488 GROUP 4 Q2 **** 0
467 CCL4 2493 GROUP 4 Q2 **** 0
468 CCL4 2498 GROUP 4 Q2 **** 0
469 CCL4 2503 GROUP 4 Q2 **** 0
470 CCL4 2508 GROUP 4 Q2 **** 0
471 CCL4 2513 GROUP 4 Q2 **** 0
472 CCL4 2518 GROUP 4 Q2 **** 0
473 CCL4 2523 GROUP 4 Q2 **** 0
474 CCL4 2528 GROUP 4 Q2 **** 0
475 CCL4 2533 GROUP 4 Q2 **** 0
476 CCL4 2538 GROUP 4 Q2 **** 0
477 CCL4 2543 GROUP 4 Q2 **** 0
478 CCL4 2548 GROUP 4 Q2 **** 0
479 CCL4 2553 GROUP 4 Q2 **** 0
480 CCL4 2558 GROUP 4 Q2 **** 0
481 CCL4 2563 GROUP 4 Q2 **** 0
482 CCL4 2568 GROUP 4 Q2 **** 0
483 CCL4 2573 GROUP 4 Q2 **** 0
484 CCL4 2578 GROUP 4 Q2 **** 0
485 CCL4 2583 GROUP 4 Q2 **** 0
486 CCL4 2588 GROUP 4 Q2 **** 0
487 CCL4 2593 GROUP 4 Q2 **** 0
488 CCL4 2598 GROUP 4 Q2 **** 0
489 CCL4 2603 GROUP 4 Q2 **** 0
490 CCL4 2608 GROUP 4 Q2 **** 0
491 CCL4 2613 GROUP 4 Q2 **** 0
492 CCL4 2618 GROUP 4 Q2 **** 0
493 CCL4 2623 GROUP 4 Q2 **** 0
494 CCL4 2628 GROUP 4 Q2 **** 0
495 CCL4 2633 GROUP 4 Q2 **** 0
496 CCL4 2638 GROUP 4 Q2 **** 0
497 CCL4 2643 GROUP 4 Q2 **** 0
498 CCL4 2648 GROUP 4 Q2 **** 0
499 CCL4 2653 GROUP 4 Q2 **** 0

# MOE 2020.09 (io_trps.svl 2020.11)
