@<TRIPOS>MOLECULE
xlinker.****
166 170 1 0 0 
SMALL
USER_CHARGES


@<TRIPOS>ATOM
  1 C      -11.7902    -1.3036     5.3267 C.ar  1 <1>  -0.1435 
  2 C      -11.4566    -0.5221     4.0532 C.3   1 <1>   0.4870 
  3 H      -12.1831    -0.8362     3.3186 H     1 <1>   0.0800 
  4 O1     -11.6335     0.9452     4.2513 O.3   1 <1>  -0.5600 
  5 C      -12.5829    -0.7275     6.3253 C.ar  1 <1>  -0.1500 
  6 H      -12.9102     0.2758     6.2273 H     1 <1>   0.1500 
  7 C      -12.9500    -1.4551     7.4537 C.ar  1 <1>  -0.1500 
  8 H      -13.5640    -1.0082     8.1949 H     1 <1>   0.1500 
  9 C      -12.5214    -2.7683     7.5993 C.ar  1 <1>  -0.1500 
 10 H      -12.7863    -3.3310     8.4620 H     1 <1>   0.1500 
 11 C      -11.7313    -3.3481     6.6137 C.ar  1 <1>  -0.1500 
 12 H      -11.4028    -4.3497     6.7255 H     1 <1>   0.1500 
 13 C      -11.3584    -2.6237     5.4874 C.ar  1 <1>  -0.1500 
 14 H      -10.7414    -3.0892     4.7556 H     1 <1>   0.1500 
 15 C       -7.5613    -1.0042     2.2979 C.ar  1 <1>   0.0825 
 16 O       -6.3474    -1.0520     1.6522 O.3   1 <1>  -0.1650 
 17 C       -8.6953    -1.0280     1.4939 C.ar  1 <1>  -0.1500 
 18 H       -8.5951    -1.1093     0.4415 H     1 <1>   0.1500 
 19 C       -9.9487    -0.9320     2.0818 C.ar  1 <1>  -0.1500 
 20 H      -10.8184    -0.9384     1.4713 H     1 <1>   0.1500 
 21 C      -10.0727    -0.7858     3.4662 C.ar  1 <1>  -0.1435 
 22 C       -8.9285    -0.8316     4.2679 C.ar  1 <1>  -0.1500 
 23 H       -9.0078    -0.7851     5.3271 H     1 <1>   0.1500 
 24 C       -7.6695    -0.9542     3.6868 C.ar  1 <1>  -0.1500 
 25 H       -6.8051    -1.0175     4.2960 H     1 <1>   0.1500 
 26 C       -2.5921     0.5560     2.3672 C.ar  1 <1>   0.0825 
 27 O       -1.3383     1.1094     2.5702 O.3   1 <1>  -0.1650 
 28 C       -2.7740    -0.4196     1.3881 C.ar  1 <1>  -0.1500 
 29 H       -1.9507    -0.7492     0.8098 H     1 <1>   0.1500 
 30 C       -4.0484    -0.9429     1.1815 C.ar  1 <1>  -0.1500 
 31 H       -4.2307    -1.6715     0.4374 H     1 <1>   0.1500 
 32 C       -5.1169    -0.4945     1.9530 C.ar  1 <1>   0.0825 
 33 C       -4.9340     0.4791     2.9383 C.ar  1 <1>  -0.1500 
 34 H       -5.7526     0.8419     3.5032 H     1 <1>   0.1500 
 35 C       -3.6558     0.9847     3.1616 C.ar  1 <1>  -0.1500 
 36 H       -3.4892     1.7041     3.9169 H     1 <1>   0.1500 
 37 C        0.4154     4.2330     0.4053 C.ar  1 <1>  -0.1435 
 38 C        1.0277     5.4095    -0.3670 C.3   1 <1>   0.4870 
 39 H        1.7310     5.9257     0.2708 H     1 <1>   0.0800 
 40 O3      -0.0767     6.3538    -0.6792 O.3   1 <1>  -0.5600 
 41 C       -0.7480     3.6201    -0.0769 C.ar  1 <1>  -0.1500 
 42 H       -1.1848     3.9758    -0.9774 H     1 <1>   0.1500 
 43 C       -1.3433     2.5671     0.6140 C.ar  1 <1>  -0.1500 
 44 H       -2.2231     2.1103     0.2347 H     1 <1>   0.1500 
 45 C       -0.7733     2.1246     1.8079 C.ar  1 <1>   0.0825 
 46 C        0.3932     2.7095     2.2944 C.ar  1 <1>  -0.1500 
 47 H        0.8172     2.3508     3.1994 H     1 <1>   0.1500 
 48 C        0.9878     3.7576     1.5920 C.ar  1 <1>  -0.1500 
 49 H        1.8775     4.1992     1.9655 H     1 <1>   0.1500 
 50 C        3.1960     4.0664    -3.8888 C.ar  1 <1>  -0.1500 
 51 H        3.7176     3.7148    -4.7468 H     1 <1>   0.1500 
 52 C        2.3329     5.1551    -3.9845 C.ar  1 <1>  -0.1500 
 53 H        2.2042     5.6444    -4.9171 H     1 <1>   0.1500 
 54 C        1.6321     5.5978    -2.8611 C.ar  1 <1>  -0.1500 
 55 H        0.9715     6.4221    -2.9528 H     1 <1>   0.1500 
 56 C        1.7878     4.9596    -1.6253 C.ar  1 <1>  -0.1435 
 57 C        2.6793     3.8852    -1.5395 C.ar  1 <1>  -0.1500 
 58 H        2.8279     3.3989    -0.6107 H     1 <1>   0.1500 
 59 C        3.3740     3.4370    -2.6625 C.ar  1 <1>  -0.1500 
 60 H        4.0348     2.6109    -2.5822 H     1 <1>   0.1500 
 61 C      -17.5937     2.4881     2.6227 C.2   1 <1>   0.6590 
 62 C1     -16.3882     1.6355     3.0450 C.3   1 <1>  -0.0990 
 63 H11    -16.4688     0.6810     2.5251 H     1 <1>   0.0800 
 64 H12    -16.4914     1.4407     4.1119 H     1 <1>   0.0800 
 65 C13    -14.9796     2.2263     2.7725 C.3   1 <1>  -0.1600 
 66 H131   -14.8467     2.3645     1.6962 H     1 <1>   0.0800 
 67 C132   -13.9075     1.2534     3.3182 C.3   1 <1>  -0.1600 
 68 H131   -13.9729     0.3185     2.7616 H     1 <1>   0.0800 
 69 H132   -14.1580     1.0317     4.3563 H     1 <1>   0.0800 
 70 C133   -12.4389     1.7407     3.3137 C.3   1 <1>   0.2000 
 71 H133   -12.4139     2.7477     3.7345 H     1 <1>   0.0800 
 72 C131   -11.7431     1.7821     1.9434 C.3   1 <1>  -0.1600 
 73 H131   -10.6914     1.5534     2.1109 H     1 <1>   0.0800 
 74 C132   -11.7425     3.1287     1.2061 C.3   1 <1>  -0.1600 
 75 H131   -11.1800     3.8502     1.8031 H     1 <1>   0.0800 
 76 H132   -12.7616     3.4951     1.0827 H     1 <1>   0.0800 
 77 C133   -11.0791     3.0020    -0.1792 C.3   1 <1>  -0.0218 
 78 H131   -10.2673     2.2923    -0.1315 H     1 <1>   0.0800 
 79 C132   -10.6102     4.3205    -0.7687 C.2   1 <1>  -0.2882 
 80 H132   -11.3995     4.9323    -1.1283 H     1 <1>   0.1500 
 81 C133    -9.3361     4.7310    -0.8623 C.2   1 <1>  -0.2882 
 82 H131    -9.0872     5.6641    -1.3139 H     1 <1>   0.1500 
 83 C132    -8.1071     3.9758    -0.3831 C.3   1 <1>  -0.0218 
 84 C131    -7.0443     4.8954     0.2399 C.3   1 <1>  -0.1600 
 85 H131    -6.6356     5.5515    -0.5330 H     1 <1>   0.0800 
 86 C132    -5.9146     4.0960     0.9024 C.3   1 <1>  -0.1600 
 87 H131    -5.4039     3.4884     0.1513 H     1 <1>   0.0800 
 88 H132    -6.3608     3.4228     1.6382 H     1 <1>   0.0800 
 89 C133    -4.8853     4.9926     1.6036 C.3   1 <1>  -0.1600 
 90 H131    -4.2344     5.4710     0.8658 H     1 <1>   0.0800 
 91 C132    -4.0536     4.1221     2.5535 C.3   1 <1>  -0.1600 
 92 H131    -3.6239     3.3002     1.9838 H     1 <1>   0.0800 
 93 H132    -4.7062     3.7211     3.3298 H     1 <1>   0.0800 
 94 C133    -2.8989     4.8975     3.1952 C.3   1 <1>  -0.1600 
 95 H131    -2.1088     4.9950     2.4503 H     1 <1>   0.0800 
 96 C132    -2.3095     4.2186     4.4341 C.3   1 <1>  -0.1600 
 97 H132    -1.8875     3.2547     4.1539 H     1 <1>   0.0800 
 98 H131    -3.0988     4.0538     5.1702 H     1 <1>   0.0800 
 99 C133    -1.2011     5.0774     5.0507 C.3   1 <1>  -0.2400 
100 H131    -0.3890     5.2097     4.3307 H     1 <1>   0.0800 
101 H132    -0.8152     4.5865     5.9464 H     1 <1>   0.0800 
102 H133    -1.5897     6.0630     5.3142 H     1 <1>   0.0800 
103 H133    -3.2522     5.8913     3.4693 H     1 <1>   0.0800 
104 H133    -5.3958     5.7635     2.1791 H     1 <1>   0.0800 
105 H133    -7.5380     5.5098     0.9967 H     1 <1>   0.0800 
106 H132    -7.6689     3.4385    -1.2120 H     1 <1>   0.0800 
107 H133    -8.3567     3.2202     0.3455 H     1 <1>   0.0800 
108 H133   -11.7788     2.5371    -0.8609 H     1 <1>   0.0800 
109 H133   -12.1664     1.0121     1.2989 H     1 <1>   0.0800 
110 H133   -14.8778     3.1954     3.2647 H     1 <1>   0.0800 
111 O2     -18.4911     2.1020     1.8832 O.2   1 <1>  -0.5700 
112 O3     -17.6326     3.7290     3.1701 O.3   1 <1>  -0.6500 
113 H3     -16.8286     3.8484     3.6737 H     1 <1>   0.5000 
114 C        1.3968    11.1628    -0.5776 C.2   1 <1>   0.6590 
115 C1       0.4474    10.0928    -0.0651 C.3   1 <1>  -0.0990 
116 C132   -10.1091     1.7903     6.9500 C.3   1 <1>  -0.1600 
117 H11     -0.5445    10.3426    -0.4424 H     1 <1>   0.0800 
118 H132   -10.8871     2.1920     6.2986 H     1 <1>   0.0800 
119 H131   -10.1677     0.7023     6.9203 H     1 <1>   0.0800 
120 H12      0.4266    10.1814     1.0191 H     1 <1>   0.0800 
121 C13      0.8209     8.6531    -0.4918 C.3   1 <1>  -0.1600 
122 H131     0.8304     8.6042    -1.5822 H     1 <1>   0.0800 
123 C132    -0.2004     7.6330     0.0302 C.3   1 <1>   0.2000 
124 H132    -1.1875     7.9932    -0.2674 H     1 <1>   0.0800 
125 C133    -0.1884     7.4920     1.5692 C.3   1 <1>  -0.1600 
126 C131    -1.5702     7.6829     2.2043 C.3   1 <1>  -0.1600 
127 H131    -2.2845     7.0603     1.6642 H     1 <1>   0.0800 
128 C132    -2.1343     9.1072     2.2434 C.3   1 <1>  -0.1600 
129 H131    -2.2751     9.4583     1.2210 H     1 <1>   0.0800 
130 H132    -1.4285     9.7674     2.7490 H     1 <1>   0.0800 
131 C133    -3.4963     9.1673     2.9660 C.3   1 <1>  -0.0218 
132 H131    -3.9299    10.1462     2.8124 H     1 <1>   0.0800 
133 C132    -3.4075     8.9069     4.4636 C.2   1 <1>  -0.2882 
134 H132    -2.5656     9.3624     4.9225 H     1 <1>   0.1500 
135 C133    -4.2817     8.2120     5.2149 C.2   1 <1>  -0.2882 
136 H131    -4.1370     8.1360     6.2665 H     1 <1>   0.1500 
137 C132    -5.5540     7.5241     4.7425 C.3   1 <1>  -0.0218 
138 C131    -5.7274     6.1152     5.3383 C.3   1 <1>  -0.1600 
139 H131    -4.9780     5.4606     4.9066 H     1 <1>   0.0800 
140 C132    -7.1330     5.5267     5.1461 C.3   1 <1>  -0.1600 
141 H131    -7.3849     5.5018     4.0842 H     1 <1>   0.0800 
142 H132    -7.8451     6.1688     5.6654 H     1 <1>   0.0800 
143 C133    -7.2162     4.1076     5.7275 C.3   1 <1>  -0.1600 
144 H131    -6.7019     3.4146     5.0582 H     1 <1>   0.0800 
145 C132    -8.6754     3.6615     5.9192 C.3   1 <1>  -0.1600 
146 H131    -9.2094     3.7261     4.9694 H     1 <1>   0.0800 
147 H132    -9.1579     4.3267     6.6367 H     1 <1>   0.0800 
148 C133    -8.7220     2.2159     6.4365 C.3   1 <1>  -0.1600 
149 H131    -8.4163     1.5563     5.6240 H     1 <1>   0.0800 
150 C133   -10.3623     2.2506     8.3947 C.3   1 <1>  -0.2400 
151 H131    -9.5716     1.8747     9.0492 H     1 <1>   0.0800 
152 H132   -11.3257     1.8778     8.7474 H     1 <1>   0.0800 
153 H133   -10.3568     3.3412     8.4224 H     1 <1>   0.0800 
154 H133    -8.0020     2.0918     7.2477 H     1 <1>   0.0800 
155 H133    -6.7194     4.0864     6.7008 H     1 <1>   0.0800 
156 H133    -5.5277     6.1668     6.4074 H     1 <1>   0.0800 
157 H132    -5.6283     7.4571     3.6697 H     1 <1>   0.0800 
158 H133    -6.3925     8.1379     5.0355 H     1 <1>   0.0800 
159 H133    -4.1721     8.4806     2.4787 H     1 <1>   0.0800 
160 H133    -1.4980     7.3322     3.2329 H     1 <1>   0.0800 
161 H132     0.5068     8.1957     2.0244 H     1 <1>   0.0800 
162 H133     0.1595     6.5017     1.8498 H     1 <1>   0.0800 
163 H133     1.8207     8.4028    -0.1336 H     1 <1>   0.0800 
164 O2       2.3847    10.9877    -1.2794 O.2   1 <1>  -0.5700 
165 O3       1.0781    12.4245    -0.2307 O.3   1 <1>  -0.6500 
166 H3       1.7646    12.9411    -0.6528 H     1 <1>   0.5000 
@<TRIPOS>BOND
  1   1   2  1   
  2   1   5  ar  
  3   1  13  ar  
  4   2   3  1   
  5   2   4  1   
  6   2  21  1   
  7   4  70  1   
  8   5   6  1   
  9   5   7  ar  
 10   7   8  1   
 11   7   9  ar  
 12   9  10  1   
 13   9  11  ar  
 14  11  12  1   
 15  11  13  ar  
 16  13  14  1   
 17  15  16  1   
 18  15  17  ar  
 19  15  24  ar  
 20  16  32  1   
 21  17  18  1   
 22  17  19  ar  
 23  19  20  1   
 24  19  21  ar  
 25  21  22  ar  
 26  22  23  1   
 27  22  24  ar  
 28  24  25  1   
 29  26  27  1   
 30  26  28  ar  
 31  26  35  ar  
 32  27  45  1   
 33  28  29  1   
 34  28  30  ar  
 35  30  31  1   
 36  30  32  ar  
 37  32  33  ar  
 38  33  34  1   
 39  33  35  ar  
 40  35  36  1   
 41  37  38  1   
 42  37  41  ar  
 43  37  48  ar  
 44  38  39  1   
 45  38  40  1   
 46  38  56  1   
 47  40 123  1   
 48  41  42  1   
 49  41  43  ar  
 50  43  44  1   
 51  43  45  ar  
 52  45  46  ar  
 53  46  47  1   
 54  46  48  ar  
 55  48  49  1   
 56  50  51  1   
 57  50  52  ar  
 58  50  59  ar  
 59  52  53  1   
 60  52  54  ar  
 61  54  55  1   
 62  54  56  ar  
 63  56  57  ar  
 64  57  58  1   
 65  57  59  ar  
 66  59  60  1   
 67  61  62  1   
 68  61 111  2   
 69  61 112  1   
 70  62  63  1   
 71  62  64  1   
 72  62  65  1   
 73  65  66  1   
 74  65  67  1   
 75  65 110  1   
 76  67  68  1   
 77  67  69  1   
 78  67  70  1   
 79  70  71  1   
 80  70  72  1   
 81  72  73  1   
 82  72  74  1   
 83  72 109  1   
 84  74  75  1   
 85  74  76  1   
 86  74  77  1   
 87  77  78  1   
 88  77  79  1   
 89  77 108  1   
 90  79  80  1   
 91  79  81  2   
 92  81  82  1   
 93  81  83  1   
 94  83  84  1   
 95  83 106  1   
 96  83 107  1   
 97  84  85  1   
 98  84  86  1   
 99  84 105  1   
100  86  87  1   
101  86  88  1   
102  86  89  1   
103  89  90  1   
104  89  91  1   
105  89 104  1   
106  91  92  1   
107  91  93  1   
108  91  94  1   
109  94  95  1   
110  94  96  1   
111  94 103  1   
112  96  97  1   
113  96  98  1   
114  96  99  1   
115  99 100  1   
116  99 101  1   
117  99 102  1   
118 112 113  1   
119 114 115  1   
120 114 164  2   
121 114 165  1   
122 115 117  1   
123 115 120  1   
124 115 121  1   
125 116 118  1   
126 116 119  1   
127 116 148  1   
128 116 150  1   
129 121 122  1   
130 121 123  1   
131 121 163  1   
132 123 124  1   
133 123 125  1   
134 125 126  1   
135 125 161  1   
136 125 162  1   
137 126 127  1   
138 126 128  1   
139 126 160  1   
140 128 129  1   
141 128 130  1   
142 128 131  1   
143 131 132  1   
144 131 133  1   
145 131 159  1   
146 133 134  1   
147 133 135  2   
148 135 136  1   
149 135 137  1   
150 137 138  1   
151 137 157  1   
152 137 158  1   
153 138 139  1   
154 138 140  1   
155 138 156  1   
156 140 141  1   
157 140 142  1   
158 140 143  1   
159 143 144  1   
160 143 145  1   
161 143 155  1   
162 145 146  1   
163 145 147  1   
164 145 148  1   
165 148 149  1   
166 148 154  1   
167 150 151  1   
168 150 152  1   
169 150 153  1   
170 165 166  1   
@<TRIPOS>SUBSTRUCTURE
  1 ****  86 GROUP 4 **** **** 0

# MOE 2020.09 (io_trps.svl 2020.11)
