@<TRIPOS>MOLECULE
xlinker
2211 1806 410 0 0 
SMALL
USER_CHARGES


@<TRIPOS>ATOM
   1 C      -12.1021    -1.4262     5.8073 C.ar    1 <1>   -0.1435 
   2 C      -11.6164    -0.6154     4.6051 C.3     1 <1>    0.4870 
   3 H      -12.2284    -0.8819     3.7579 H       1 <1>    0.0800 
   4 O1     -11.7989     0.8273     4.8680 O.3     1 <1>   -0.5600 
   5 C      -12.9064    -0.8378     6.7882 C.ar    1 <1>   -0.1500 
   6 H      -13.1807     0.1884     6.7152 H       1 <1>    0.1500 
   7 C      -13.3643    -1.5788     7.8685 C.ar    1 <1>   -0.1500 
   8 H      -14.0097    -1.1173     8.5748 H       1 <1>    0.1500 
   9 C      -13.0051    -2.9097     8.0020 C.ar    1 <1>   -0.1500 
  10 H      -13.3235    -3.4747     8.8481 H       1 <1>    0.1500 
  11 C      -12.2138    -3.5087     7.0272 C.ar    1 <1>   -0.1500 
  12 H      -11.9512    -4.5314     7.1272 H       1 <1>    0.1500 
  13 C      -11.7601    -2.7748     5.9364 C.ar    1 <1>   -0.1500 
  14 H      -11.1407    -3.2450     5.2071 H       1 <1>    0.1500 
  15 C       -7.5078    -1.3346     3.5459 C.ar    1 <1>    0.0825 
  16 O       -6.2114    -1.6407     3.1669 O.3     1 <1>   -0.1650 
  17 C       -8.5066    -1.3612     2.5719 C.ar    1 <1>   -0.1500 
  18 H       -8.2726    -1.5590     1.5601 H       1 <1>    0.1500 
  19 C       -9.8271    -1.1444     2.9398 C.ar    1 <1>   -0.1500 
  20 H      -10.5944    -1.1614     2.2017 H       1 <1>    0.1500 
  21 C      -10.1555    -0.8890     4.2728 C.ar    1 <1>   -0.1435 
  22 C       -9.1478    -0.8668     5.2474 C.ar    1 <1>   -0.1500 
  23 H       -9.3818    -0.6985     6.2752 H       1 <1>    0.1500 
  24 C       -7.8181    -1.0883     4.8831 C.ar    1 <1>   -0.1500 
  25 H       -7.0509    -1.0934     5.6166 H       1 <1>    0.1500 
  26 C       -2.5813     0.3655     3.4894 C.ar    1 <1>    0.0825 
  27 O       -1.3496     1.0344     3.5755 O.3     1 <1>   -0.1650 
  28 C       -2.6071    -0.9972     3.1701 C.ar    1 <1>   -0.1500 
  29 H       -1.6963    -1.5161     2.9915 H       1 <1>    0.1500 
  30 C       -3.8348    -1.6600     3.1054 C.ar    1 <1>   -0.1500 
  31 H       -3.8963    -2.6947     2.8831 H       1 <1>    0.1500 
  32 C       -5.0177    -0.9543     3.3414 C.ar    1 <1>    0.0825 
  33 C       -4.9921     0.3966     3.6924 C.ar    1 <1>   -0.1500 
  34 H       -5.8926     0.9262     3.8852 H       1 <1>    0.1500 
  35 C       -3.7622     1.0499     3.7810 C.ar    1 <1>   -0.1500 
  36 H       -3.7142     2.0606     4.0775 H       1 <1>    0.1500 
  37 C        0.1473     4.4364     1.6128 C.ar    1 <1>   -0.1435 
  38 C        0.8322     5.5448     0.7924 C.3     1 <1>    0.4870 
  39 H        1.4911     6.1210     1.4248 H       1 <1>    0.0800 
  40 O3      -0.2016     6.4790     0.2484 O.3     1 <1>   -0.5600 
  41 C       -0.9973     3.7932     1.1186 C.ar    1 <1>   -0.1500 
  42 H       -1.4508     4.1424     0.2214 H       1 <1>    0.1500 
  43 C       -1.5359     2.6888     1.7751 C.ar    1 <1>   -0.1500 
  44 H       -2.3810     2.1882     1.3794 H       1 <1>    0.1500 
  45 C       -0.9290     2.2136     2.9373 C.ar    1 <1>    0.0825 
  46 C        0.1769     2.8758     3.4724 C.ar    1 <1>   -0.1500 
  47 H        0.6260     2.5114     4.3646 H       1 <1>    0.1500 
  48 C        0.7046     3.9889     2.8163 C.ar    1 <1>   -0.1500 
  49 H        1.5591     4.4836     3.2114 H       1 <1>    0.1500 
  50 C        3.2486     3.6103    -2.2670 C.ar    1 <1>   -0.1500 
  51 H        3.8262     3.1081    -3.0065 H       1 <1>    0.1500 
  52 C        2.3696     4.6269    -2.6280 C.ar    1 <1>   -0.1500 
  53 H        2.2785     4.9206    -3.6452 H       1 <1>    0.1500 
  54 C        1.6019     5.2676    -1.6516 C.ar    1 <1>   -0.1500 
  55 H        0.9195     6.0251    -1.9408 H       1 <1>    0.1500 
  56 C        1.7065     4.9078    -0.3048 C.ar    1 <1>   -0.1435 
  57 C        2.6193     3.9093     0.0457 C.ar    1 <1>   -0.1500 
  58 H        2.7255     3.6203     1.0632 H       1 <1>    0.1500 
  59 C        3.3752     3.2579    -0.9282 C.ar    1 <1>   -0.1500 
  60 H        4.0445     2.4857    -0.6406 H       1 <1>    0.1500 
  61 C      -17.5937     2.4881     2.6227 C.2     1 <1>    0.6590 
  62 C1     -16.4343     1.6701     3.2284 C.3     1 <1>   -0.0990 
  63 H11    -16.4687     0.6841     2.7672 H       1 <1>    0.0800 
  64 H12    -16.6538     1.5427     4.2855 H       1 <1>    0.0800 
  65 C13    -14.9883     2.2352     3.0864 C.3     1 <1>   -0.1600 
  66 H131   -14.7453     2.3448     2.0242 H       1 <1>    0.0800 
  67 C132   -13.9894     1.2629     3.7743 C.3     1 <1>   -0.1600 
  68 H131   -14.0635     0.2924     3.2814 H       1 <1>    0.0800 
  69 H132   -14.3291     1.1201     4.8018 H       1 <1>    0.0800 
  70 C133   -12.4883     1.6602     3.8595 C.3     1 <1>    0.2000 
  71 H133   -12.4208     2.6687     4.2648 H       1 <1>    0.0800 
  72 C131   -11.7283     1.6181     2.5159 C.3     1 <1>   -0.1600 
  73 H131   -10.7138     1.2846     2.7184 H       1 <1>    0.0800 
  74 C132   -11.5739     2.9817     1.8393 C.3     1 <1>   -0.1600 
  75 H131   -11.0348     3.6337     2.5265 H       1 <1>    0.0800 
  76 H132   -12.5551     3.4069     1.6273 H       1 <1>    0.0800 
  77 C133   -10.7718     2.9043     0.5351 C.3     1 <1>   -0.0218 
  78 H131    -9.9130     2.2672     0.6805 H       1 <1>    0.0800 
  79 C132   -10.3391     4.2509    -0.0080 C.2     1 <1>   -0.2882 
  80 H132   -11.1044     4.7642    -0.5385 H       1 <1>    0.1500 
  81 C133    -9.1151     4.7762     0.1368 C.2     1 <1>   -0.2882 
  82 H131    -8.8625     5.7185    -0.3011 H       1 <1>    0.1500 
  83 C132    -7.9772     4.1239     0.9042 C.3     1 <1>   -0.0218 
  84 C131    -6.9488     5.1364     1.4333 C.3     1 <1>   -0.1600 
  85 H131    -6.4958     5.6594     0.5859 H       1 <1>    0.0800 
  86 C132    -5.8565     4.4675     2.2820 C.3     1 <1>   -0.1600 
  87 H131    -5.3165     3.7497     1.6581 H       1 <1>    0.0800 
  88 H132    -6.3246     3.9276     3.1099 H       1 <1>    0.0800 
  89 C133    -4.8657     5.4968     2.8408 C.3     1 <1>   -0.1600 
  90 H131    -4.2853     5.9382     2.0251 H       1 <1>    0.0800 
  91 C132    -3.9220     4.8060     3.8329 C.3     1 <1>   -0.1600 
  92 H131    -3.4506     3.9631     3.3337 H       1 <1>    0.0800 
  93 H132    -4.4975     4.4550     4.6904 H       1 <1>    0.0800 
  94 C133    -2.8051     5.7192     4.3207 C.3     1 <1>   -0.1600 
  95 H131    -2.0759     5.7892     3.5119 H       1 <1>    0.0800 
  96 C132    -2.0973     5.1731     5.5626 C.3     1 <1>   -0.1600 
  97 H132    -1.7048     4.1783     5.3397 H       1 <1>    0.0800 
  98 H131    -2.8216     5.0849     6.3757 H       1 <1>    0.0800 
  99 C133    -0.9643     6.1047     6.0053 C.3     1 <1>   -0.2400 
 100 H131    -0.1835     6.1343     5.2390 H       1 <1>    0.0800 
 101 H132    -0.5394     5.7424     6.9451 H       1 <1>    0.0800 
 102 H133    -1.3473     7.1179     6.1528 H       1 <1>    0.0800 
 103 H133    -3.2111     6.7095     4.5348 H       1 <1>    0.0800 
 104 H133    -5.4189     6.2883     3.3502 H       1 <1>    0.0800 
 105 H133    -7.4766     5.8741     2.0452 H       1 <1>    0.0800 
 106 H132    -7.4831     3.3943     0.2798 H       1 <1>    0.0800 
 107 H133    -8.3540     3.5510     1.7398 H       1 <1>    0.0800 
 108 H133   -11.3723     2.4088    -0.2112 H       1 <1>    0.0800 
 109 H133   -12.2022     0.9064     1.8381 H       1 <1>    0.0800 
 110 H133   -14.9322     3.2130     3.5737 H       1 <1>    0.0800 
 111 O2     -18.4747     2.0387     1.8827 O.2     1 <1>   -0.5700 
 112 O3     -17.6128     3.8085     2.9606 O.3     1 <1>   -0.6500 
 113 H3     -16.8597     3.9571     3.5430 H       1 <1>    0.5000 
 114 C        1.3968    11.1628    -0.5776 C.2     1 <1>    0.6590 
 115 C1       0.4315    10.2698     0.1814 C.3     1 <1>   -0.0990 
 116 C132   -10.9567     3.5170     8.1187 C.3     1 <1>   -0.1600 
 117 H11     -0.5512    10.4513    -0.2512 H       1 <1>    0.0800 
 118 H132   -11.6898     3.8960     7.3993 H       1 <1>    0.0800 
 119 H131   -11.0663     2.4303     8.1806 H       1 <1>    0.0800 
 120 H12      0.4162    10.6113     1.2153 H       1 <1>    0.0800 
 121 C13      0.7704     8.7650     0.0692 C.3     1 <1>   -0.1600 
 122 H131     0.8155     8.4903    -0.9868 H       1 <1>    0.0800 
 123 C132    -0.2955     7.8916     0.7371 C.3     1 <1>    0.2000 
 124 H132    -1.2674     8.2371     0.3797 H       1 <1>    0.0800 
 125 C133    -0.2514     8.0524     2.2791 C.3     1 <1>   -0.1600 
 126 C131    -1.6036     8.3436     2.9413 C.3     1 <1>   -0.1600 
 127 H131    -2.3685     7.7219     2.4713 H       1 <1>    0.0800 
 128 C132    -2.1291     9.7830     2.9783 C.3     1 <1>   -0.1600 
 129 H131    -2.3761    10.0960     1.9609 H       1 <1>    0.0800 
 130 H132    -1.3599    10.4442     3.3830 H       1 <1>    0.0800 
 131 C133    -3.3974     9.8986     3.8615 C.3     1 <1>   -0.0218 
 132 H131    -3.7700    10.9111     3.8023 H       1 <1>    0.0800 
 133 C132    -3.1916     9.5396     5.3342 C.2     1 <1>   -0.2882 
 134 H132    -2.2292     9.7888     5.7053 H       1 <1>    0.1500 
 135 C133    -4.0973     8.9709     6.1500 C.2     1 <1>   -0.2882 
 136 H131    -3.8734     8.7912     7.1758 H       1 <1>    0.1500 
 137 C132    -5.5132     8.5397     5.7899 C.3     1 <1>   -0.0218 
 138 C131    -5.9141     7.1910     6.4300 C.3     1 <1>   -0.1600 
 139 H131    -5.3914     6.3839     5.9123 H       1 <1>    0.0800 
 140 C132    -7.4303     6.9117     6.4085 C.3     1 <1>   -0.1600 
 141 H131    -7.7923     7.0121     5.3827 H       1 <1>    0.0800 
 142 H132    -7.9260     7.6579     7.0339 H       1 <1>    0.0800 
 143 C133    -7.7499     5.4930     6.9146 C.3     1 <1>   -0.1600 
 144 H131    -7.4824     4.7798     6.1295 H       1 <1>    0.0800 
 145 C132    -9.2263     5.2936     7.3089 C.3     1 <1>   -0.1600 
 146 H131    -9.8724     5.6194     6.4937 H       1 <1>    0.0800 
 147 H132    -9.4309     5.8930     8.1985 H       1 <1>    0.0800 
 148 C133    -9.5213     3.8134     7.6269 C.3     1 <1>   -0.1600 
 149 H131    -9.3437     3.2321     6.7185 H       1 <1>    0.0800 
 150 C133   -11.2569     4.1147     9.5075 C.3     1 <1>   -0.2400 
 151 H131   -10.5019     3.7960    10.2321 H       1 <1>    0.0800 
 152 H132   -12.2441     3.8031     9.8591 H       1 <1>    0.0800 
 153 H133   -11.2441     5.2042     9.4307 H       1 <1>    0.0800 
 154 H133    -8.8133     3.4703     8.3880 H       1 <1>    0.0800 
 155 H133    -7.1227     5.2641     7.7773 H       1 <1>    0.0800 
 156 H133    -5.5954     7.1925     7.4728 H       1 <1>    0.0800 
 157 H132    -5.6702     8.4863     4.7253 H       1 <1>    0.0800 
 158 H133    -6.1962     9.3078     6.1181 H       1 <1>    0.0800 
 159 H133    -4.1727     9.2878     3.4238 H       1 <1>    0.0800 
 160 H133    -1.4842     8.0365     3.9800 H       1 <1>    0.0800 
 161 H132     0.4477     8.8327     2.5811 H       1 <1>    0.0800 
 162 H133     0.1230     7.1363     2.7287 H       1 <1>    0.0800 
 163 H133     1.7443     8.5564     0.5164 H       1 <1>    0.0800 
 164 O2       2.4348    10.8080    -1.1448 O.2     1 <1>   -0.5700 
 165 O3       1.0409    12.4657    -0.6654 O.3     1 <1>   -0.6500 
 166 H3       1.7415    12.7614    -1.2609 H       1 <1>    0.5000 
 167 CL     -19.6989    -9.6099   -18.2031 Cl      2 CCL4  -0.0812 
 168 C      -18.5759    -9.7097   -16.8438 C.3     2 CCL4   0.3246 
 169 CL     -19.0571   -11.0684   -15.8106 Cl      2 CCL4  -0.0812 
 170 CL     -18.6146    -8.1823   -15.9379 Cl      2 CCL4  -0.0812 
 171 CL     -16.9309   -10.0039   -17.4492 Cl      2 CCL4  -0.0812 
 172 CL     -23.1185    20.4852   -14.3995 Cl      3 CCL4  -0.0812 
 173 C      -22.2966    21.5993   -15.5185 C.3     3 CCL4   0.3246 
 174 CL     -23.4796    22.2379   -16.6875 Cl      3 CCL4  -0.0812 
 175 CL     -21.0090    20.7352   -16.3963 Cl      3 CCL4  -0.0812 
 176 CL     -21.5839    22.9413   -14.5876 Cl      3 CCL4  -0.0812 
 177 CL     -26.1663    -7.8219   -13.9185 Cl      4 CCL4  -0.0812 
 178 C      -26.3983    -9.5214   -14.4020 C.3     4 CCL4   0.3246 
 179 CL     -25.1897   -10.5307   -13.5839 Cl      4 CCL4  -0.0812 
 180 CL     -26.1982    -9.7217   -16.1597 Cl      4 CCL4  -0.0812 
 181 CL     -28.0311   -10.0570   -13.9377 Cl      4 CCL4  -0.0812 
 182 CL     -20.5665   -15.3445     2.7319 Cl      5 CCL4  -0.0812 
 183 C      -21.8745   -14.5493     1.8406 C.3     5 CCL4   0.3246 
 184 CL     -21.3841   -14.3589     0.1433 Cl      5 CCL4  -0.0812 
 185 CL     -22.2019   -12.9530     2.5488 Cl      5 CCL4  -0.0812 
 186 CL     -23.3398   -15.5480     1.9510 Cl      5 CCL4  -0.0812 
 187 CL     -25.2898     1.4077   -13.2606 Cl      6 CCL4  -0.0812 
 188 C      -25.1887     3.1767   -13.3670 C.3     6 CCL4   0.3246 
 189 CL     -26.6135     3.8721   -12.5579 Cl      6 CCL4  -0.0812 
 190 CL     -25.1547     3.6795   -15.0762 Cl      6 CCL4  -0.0812 
 191 CL     -23.6960     3.6962   -12.5583 Cl      6 CCL4  -0.0812 
 192 CL     -21.6039   -10.9490   -13.4867 Cl      7 CCL4  -0.0812 
 193 C      -21.8399   -12.7070   -13.6101 C.3     7 CCL4   0.3246 
 194 CL     -20.3515   -13.5625   -13.1448 Cl      7 CCL4  -0.0812 
 195 CL     -22.2699   -13.1117   -15.2857 Cl      7 CCL4  -0.0812 
 196 CL     -23.1463   -13.1972   -12.5081 Cl      7 CCL4  -0.0812 
 197 CL     -28.1429    22.8501   -11.8007 Cl      8 CCL4  -0.0812 
 198 C      -26.9897    21.6052   -11.2618 C.3     8 CCL4   0.3246 
 199 CL     -25.3770    21.9645   -11.9165 Cl      8 CCL4  -0.0812 
 200 CL     -27.5139    20.0040   -11.8287 Cl      8 CCL4  -0.0812 
 201 CL     -26.9046    21.6354    -9.4900 Cl      8 CCL4  -0.0812 
 202 CL      -7.8670    -1.6906   -16.6119 Cl      9 CCL4  -0.0812 
 203 C       -8.4427    -0.0330   -16.9084 C.3     9 CCL4   0.3246 
 204 CL      -9.3691     0.5154   -15.4940 Cl      9 CCL4  -0.0812 
 205 CL      -9.4800     0.0001   -18.3552 Cl      9 CCL4  -0.0812 
 206 CL      -7.0421     1.0388   -17.1319 Cl      9 CCL4  -0.0812 
 207 CL     -18.2510     4.4427   -16.3134 Cl     10 CCL4  -0.0812 
 208 C      -19.5747     3.7456   -17.2653 C.3    10 CCL4   0.3246 
 209 CL     -19.3794     1.9810   -17.3438 Cl     10 CCL4  -0.0812 
 210 CL     -19.5697     4.4691   -18.8901 Cl     10 CCL4  -0.0812 
 211 CL     -21.1083     4.1249   -16.4688 Cl     10 CCL4  -0.0812 
 212 CL     -26.4369     2.7174    21.2546 Cl     11 CCL4  -0.0812 
 213 C      -24.7352     2.3822    20.8575 C.3    11 CCL4   0.3246 
 214 CL     -23.7402     3.7693    21.3545 Cl     11 CCL4  -0.0812 
 215 CL     -24.6035     2.1348    19.1016 Cl     11 CCL4  -0.0812 
 216 CL     -24.1967     0.9175    21.7131 Cl     11 CCL4  -0.0812 
 217 CL     -25.0888   -10.3678     2.0892 Cl     12 CCL4  -0.0812 
 218 C      -24.9169   -10.6204     0.3336 C.3    12 CCL4   0.3246 
 219 CL     -23.5902    -9.6113    -0.2890 Cl     12 CCL4  -0.0812 
 220 CL     -26.4364   -10.2052    -0.4899 Cl     12 CCL4  -0.0812 
 221 CL     -24.5522   -12.3334     0.0354 Cl     12 CCL4  -0.0812 
 222 CL      13.8286    -9.2554     2.3571 Cl     13 CCL4  -0.0812 
 223 C       14.8869   -10.2781     1.3668 C.3    13 CCL4   0.3246 
 224 CL      16.5131   -10.2688     2.0736 Cl     13 CCL4  -0.0812 
 225 CL      14.9543    -9.6387    -0.2899 Cl     13 CCL4  -0.0812 
 226 CL      14.2729   -11.9464     1.3348 Cl     13 CCL4  -0.0812 
 227 CL     -20.4154   -12.8993    20.8751 Cl     14 CCL4  -0.0812 
 228 C      -19.8723   -14.5486    21.2473 C.3    14 CCL4   0.3246 
 229 CL     -20.9938   -15.3104    22.3930 Cl     14 CCL4  -0.0812 
 230 CL     -18.2384   -14.5079    21.9432 Cl     14 CCL4  -0.0812 
 231 CL     -19.8554   -15.4931    19.7419 Cl     14 CCL4  -0.0812 
 232 CL     -22.4850    -7.8818    20.7379 Cl     15 CCL4  -0.0812 
 233 C      -23.2714    -9.4636    20.5526 C.3    15 CCL4   0.3246 
 234 CL     -25.0074    -9.2105    20.2941 Cl     15 CCL4  -0.0812 
 235 CL     -23.0342   -10.4368    22.0245 Cl     15 CCL4  -0.0812 
 236 CL     -22.5855   -10.3142    19.1456 Cl     15 CCL4  -0.0812 
 237 CL      15.2292   -12.5637    20.0240 Cl     16 CCL4  -0.0812 
 238 C       16.3773   -11.9800    21.2491 C.3    16 CCL4   0.3246 
 239 CL      16.4222   -13.1384    22.5915 Cl     16 CCL4  -0.0812 
 240 CL      15.8610   -10.3921    21.8711 Cl     16 CCL4  -0.0812 
 241 CL      18.0000   -11.8548    20.5324 Cl     16 CCL4  -0.0812 
 242 CL     -24.8702   -15.6277   -14.3100 Cl     17 CCL4  -0.0812 
 243 C      -26.2338   -14.8501   -15.1407 C.3    17 CCL4   0.3246 
 244 CL     -25.6183   -13.8581   -16.4840 Cl     17 CCL4  -0.0812 
 245 CL     -27.1089   -13.8096   -13.9899 Cl     17 CCL4  -0.0812 
 246 CL     -27.3264   -16.1045   -15.7737 Cl     17 CCL4  -0.0812 
 247 CL      -5.8909   -10.0093   -12.3047 Cl     18 CCL4  -0.0812 
 248 C       -6.3357   -11.4705   -13.2125 C.3    18 CCL4   0.3246 
 249 CL      -7.9370   -12.0254   -12.6831 Cl     18 CCL4  -0.0812 
 250 CL      -5.1407   -12.7484   -12.9005 Cl     18 CCL4  -0.0812 
 251 CL      -6.3919   -11.1178   -14.9556 Cl     18 CCL4  -0.0812 
 252 CL      -6.9489    21.7488   -11.2111 Cl     19 CCL4  -0.0812 
 253 C       -6.9051    23.1236   -12.3331 C.3    19 CCL4   0.3246 
 254 CL      -5.3077    23.2024   -13.1137 Cl     19 CCL4  -0.0812 
 255 CL      -7.1955    24.6223   -11.4272 Cl     19 CCL4  -0.0812 
 256 CL      -8.1635    22.9151   -13.5705 Cl     19 CCL4  -0.0812 
 257 CL      -6.7426   -11.4217    -6.8104 Cl     20 CCL4  -0.0812 
 258 C       -7.6682   -12.8927    -7.1907 C.3    20 CCL4   0.3246 
 259 CL      -8.1010   -12.8753    -8.9125 Cl     20 CCL4  -0.0812 
 260 CL      -9.1468   -12.9253    -6.2017 Cl     20 CCL4  -0.0812 
 261 CL      -6.6784   -14.3204    -6.8303 Cl     20 CCL4  -0.0812 
 262 CL      14.7502     4.4793   -12.4569 Cl     21 CCL4  -0.0812 
 263 C       14.3774     2.8037   -11.9877 C.3    21 CCL4   0.3246 
 264 CL      12.7586     2.3534   -12.5757 Cl     21 CCL4  -0.0812 
 265 CL      14.4307     2.6683   -10.2153 Cl     21 CCL4  -0.0812 
 266 CL      15.5829     1.6864   -12.6755 Cl     21 CCL4  -0.0812 
 267 CL      -5.4584   -16.7550    22.3370 Cl     22 CCL4  -0.0812 
 268 C       -6.3747   -15.3998    21.6324 C.3    22 CCL4   0.3246 
 269 CL      -6.1620   -13.9379    22.6245 Cl     22 CCL4  -0.0812 
 270 CL      -8.0992   -15.8336    21.5669 Cl     22 CCL4  -0.0812 
 271 CL      -5.7734   -15.0643    19.9903 Cl     22 CCL4  -0.0812 
 272 CL     -25.8327    23.5605    -6.6023 Cl     23 CCL4  -0.0812 
 273 C      -24.7892    22.1489    -6.3019 C.3    23 CCL4   0.3246 
 274 CL     -25.7735    20.6701    -6.2306 Cl     23 CCL4  -0.0812 
 275 CL     -23.9775    22.3522    -4.7376 Cl     23 CCL4  -0.0812 
 276 CL     -23.5866    22.0011    -7.6074 Cl     23 CCL4  -0.0812 
 277 CL     -19.0308   -11.5405    -3.0207 Cl     24 CCL4  -0.0812 
 278 C      -18.2120   -11.7525    -1.4620 C.3    24 CCL4   0.3246 
 279 CL     -19.3975   -11.4416    -0.1681 Cl     24 CCL4  -0.0812 
 280 CL     -16.8702   -10.5905    -1.3040 Cl     24 CCL4  -0.0812 
 281 CL     -17.6028   -13.4216    -1.3709 Cl     24 CCL4  -0.0812 
 282 CL      -4.3969    22.7249    -6.5578 Cl     25 CCL4  -0.0812 
 283 C       -5.4638    21.4107    -7.0957 C.3    25 CCL4   0.3246 
 284 CL      -4.8344    20.6999    -8.6047 Cl     25 CCL4  -0.0812 
 285 CL      -7.1019    22.0522    -7.3701 Cl     25 CCL4  -0.0812 
 286 CL      -5.5224    20.1596    -5.8337 Cl     25 CCL4  -0.0812 
 287 CL     -21.3466   -13.2160    -8.7401 Cl     26 CCL4  -0.0812 
 288 C      -19.9941   -12.4174    -7.9022 C.3    26 CCL4   0.3246 
 289 CL     -18.4537   -12.9850    -8.5827 Cl     26 CCL4  -0.0812 
 290 CL     -20.0483   -12.7758    -6.1633 Cl     26 CCL4  -0.0812 
 291 CL     -20.1191   -10.6595    -8.1362 Cl     26 CCL4  -0.0812 
 292 CL     -21.3681    -8.6417   -10.7029 Cl     27 CCL4  -0.0812 
 293 C      -22.8964    -8.7057    -9.7905 C.3    27 CCL4   0.3246 
 294 CL     -22.6478    -8.0892    -8.1340 Cl     27 CCL4  -0.0812 
 295 CL     -23.4526   -10.3933    -9.7276 Cl     27 CCL4  -0.0812 
 296 CL     -24.1122    -7.7219   -10.6411 Cl     27 CCL4  -0.0812 
 297 CL     -16.8388    21.8913   -10.8092 Cl     28 CCL4  -0.0812 
 298 C      -17.9794    22.7292    -9.7289 C.3    28 CCL4   0.3246 
 299 CL     -19.0170    23.8241   -10.6774 Cl     28 CCL4  -0.0812 
 300 CL     -17.0573    23.6641    -8.5277 Cl     28 CCL4  -0.0812 
 301 CL     -18.9845    21.5198    -8.8917 Cl     28 CCL4  -0.0812 
 302 CL     -23.5839     1.2493    -3.6467 Cl     29 CCL4  -0.0812 
 303 C      -23.9086     2.8576    -2.9461 C.3    29 CCL4   0.3246 
 304 CL     -24.1990     2.6929    -1.1988 Cl     29 CCL4  -0.0812 
 305 CL     -25.3361     3.5949    -3.7153 Cl     29 CCL4  -0.0812 
 306 CL     -22.5114     3.9232    -3.1813 Cl     29 CCL4  -0.0812 
 307 CL     -18.3660    22.5244    -4.5878 Cl     30 CCL4  -0.0812 
 308 C      -20.0690    22.7803    -5.0394 C.3    30 CCL4   0.3246 
 309 CL     -20.1232    23.8556    -6.4505 Cl     30 CCL4  -0.0812 
 310 CL     -20.9479    23.5305    -3.6841 Cl     30 CCL4  -0.0812 
 311 CL     -20.8014    21.2202    -5.4861 Cl     30 CCL4  -0.0812 
 312 CL     -15.3966    -9.1623    -6.8452 Cl     31 CCL4  -0.0812 
 313 C      -14.8883    -9.5060    -5.1758 C.3    31 CCL4   0.3246 
 314 CL     -15.7427   -10.9469    -4.5782 Cl     31 CCL4  -0.0812 
 315 CL     -15.2550    -8.1070    -4.1331 Cl     31 CCL4  -0.0812 
 316 CL     -13.1385    -9.8246    -5.1463 Cl     31 CCL4  -0.0812 
 317 CL     -25.5572   -13.1977    -3.9882 Cl     32 CCL4  -0.0812 
 318 C      -23.8586   -12.8909    -4.4206 C.3    32 CCL4   0.3246 
 319 CL     -23.2809   -14.1959    -5.4801 Cl     32 CCL4  -0.0812 
 320 CL     -22.8580   -12.8406    -2.9521 Cl     32 CCL4  -0.0812 
 321 CL     -23.7077   -11.3371    -5.2752 Cl     32 CCL4  -0.0812 
 322 CL      -9.1012    -9.7878    -4.2654 Cl     33 CCL4  -0.0812 
 323 C       -7.9729   -10.0026    -2.9104 C.3    33 CCL4   0.3246 
 324 CL      -6.5832    -8.9061    -3.0997 Cl     33 CCL4  -0.0812 
 325 CL      -7.3981   -11.6859    -2.8869 Cl     33 CCL4  -0.0812 
 326 CL      -8.8405    -9.6181    -1.4061 Cl     33 CCL4  -0.0812 
 327 CL     -27.0174   -11.5464   -10.4254 Cl     34 CCL4  -0.0812 
 328 C      -26.8531   -12.9582    -9.3446 C.3    34 CCL4   0.3246 
 329 CL     -28.4802   -13.5389    -8.8963 Cl     34 CCL4  -0.0812 
 330 CL     -25.9501   -12.5101    -7.8746 Cl     34 CCL4  -0.0812 
 331 CL     -25.9850   -14.2628   -10.1881 Cl     34 CCL4  -0.0812 
 332 CL      -6.6121     0.4407    -6.2773 Cl     35 CCL4  -0.0812 
 333 C       -6.6340     0.9162    -7.9925 C.3    35 CCL4   0.3246 
 334 CL      -5.6071     2.3507    -8.2096 Cl     35 CCL4  -0.0812 
 335 CL      -8.3002     1.3010    -8.4942 Cl     35 CCL4  -0.0812 
 336 CL      -5.9906    -0.4120    -8.9861 Cl     35 CCL4  -0.0812 
 337 CL     -23.4379    21.7452    -0.7013 Cl     36 CCL4  -0.0812 
 338 C      -25.0385    22.5179    -0.8448 C.3    36 CCL4   0.3246 
 339 CL     -25.8888    22.4530     0.7212 Cl     36 CCL4  -0.0812 
 340 CL     -26.0099    21.6634    -2.0668 Cl     36 CCL4  -0.0812 
 341 CL     -24.8300    24.2159    -1.3324 Cl     36 CCL4  -0.0812 
 342 CL     -21.7441    -5.0317   -16.0882 Cl     37 CCL4  -0.0812 
 343 C      -22.3420    -6.1313   -14.8205 C.3    37 CCL4   0.3246 
 344 CL     -23.1727    -7.5062   -15.5801 Cl     37 CCL4  -0.0812 
 345 CL     -23.4679    -5.2460   -13.7614 Cl     37 CCL4  -0.0812 
 346 CL     -20.9876    -6.7601   -13.8641 Cl     37 CCL4  -0.0812 
 347 CL     -22.7263    -0.9894    -7.7738 Cl     38 CCL4  -0.0812 
 348 C      -22.6338    -1.1393    -9.5451 C.3    38 CCL4   0.3246 
 349 CL     -23.4943    -2.6112   -10.0549 Cl     38 CCL4  -0.0812 
 350 CL     -20.9320    -1.2410   -10.0454 Cl     38 CCL4  -0.0812 
 351 CL     -23.4003     0.2707   -10.3050 Cl     38 CCL4  -0.0812 
 352 CL     -26.8478    -1.9762   -12.7031 Cl     39 CCL4  -0.0812 
 353 C      -27.8886    -3.1060   -11.8026 C.3    39 CCL4   0.3246 
 354 CL     -26.9551    -4.5599   -11.3725 Cl     39 CCL4  -0.0812 
 355 CL     -29.2873    -3.5777   -12.7998 Cl     39 CCL4  -0.0812 
 356 CL     -28.4733    -2.3184   -10.3202 Cl     39 CCL4  -0.0812 
 357 CL      -6.4553    -4.4041    -1.3418 Cl     40 CCL4  -0.0812 
 358 C       -5.9606    -3.5585     0.1387 C.3    40 CCL4   0.3246 
 359 CL      -6.9241    -4.1824     1.4926 Cl     40 CCL4  -0.0812 
 360 CL      -6.2026    -1.8111    -0.0886 Cl     40 CCL4  -0.0812 
 361 CL      -4.2454    -3.8906     0.4408 Cl     40 CCL4  -0.0812 
 362 CL     -21.3551    -1.5171   -16.3794 Cl     41 CCL4  -0.0812 
 363 C      -22.4127    -0.7819   -15.1513 C.3    41 CCL4   0.3246 
 364 CL     -21.9811    -1.3457   -13.5256 Cl     41 CCL4  -0.0812 
 365 CL     -24.1010    -1.2490   -15.4640 Cl     41 CCL4  -0.0812 
 366 CL     -22.2648     0.9869   -15.2120 Cl     41 CCL4  -0.0812 
 367 CL     -27.3554     3.3623    -6.6292 Cl     42 CCL4  -0.0812 
 368 C      -26.6238     1.8686    -7.2740 C.3    42 CCL4   0.3246 
 369 CL     -27.2793     0.4462    -6.4310 Cl     42 CCL4  -0.0812 
 370 CL     -24.8674     1.8937    -7.0144 Cl     42 CCL4  -0.0812 
 371 CL     -26.9581     1.7333    -9.0193 Cl     42 CCL4  -0.0812 
 372 CL      16.3873    -0.0469   -18.2295 Cl     43 CCL4  -0.0812 
 373 C       16.2423     0.2100   -16.4711 C.3    43 CCL4   0.3246 
 374 CL      16.1069    -1.3628   -15.6499 Cl     43 CCL4  -0.0812 
 375 CL      14.7829     1.1805   -16.1366 Cl     43 CCL4  -0.0812 
 376 CL      17.6898     1.0519   -15.8704 Cl     43 CCL4  -0.0812 
 377 CL     -28.2531    -7.0375   -16.7196 Cl     44 CCL4  -0.0812 
 378 C      -27.1823    -5.6729   -17.1101 C.3    44 CCL4   0.3246 
 379 CL     -27.9243    -4.6969   -18.3994 Cl     44 CCL4  -0.0812 
 380 CL     -25.6076    -6.2795   -17.6704 Cl     44 CCL4  -0.0812 
 381 CL     -26.9695    -4.6607   -15.6592 Cl     44 CCL4  -0.0812 
 382 CL      -7.3471    -8.7955    -9.2449 Cl     45 CCL4  -0.0812 
 383 C       -8.6196    -8.1874    -8.1604 C.3    45 CCL4   0.3246 
 384 CL      -7.8819    -7.6801    -6.6252 Cl     45 CCL4  -0.0812 
 385 CL      -9.8351    -9.4574    -7.8797 Cl     45 CCL4  -0.0812 
 386 CL      -9.4000    -6.7685    -8.8995 Cl     45 CCL4  -0.0812 
 387 CL      -7.7651    -3.0083   -10.6549 Cl     46 CCL4  -0.0812 
 388 C       -7.8593    -2.1377   -12.2027 C.3    46 CCL4   0.3246 
 389 CL      -9.1053    -2.8857   -13.2306 Cl     46 CCL4  -0.0812 
 390 CL      -6.2806    -2.2246   -13.0223 Cl     46 CCL4  -0.0812 
 391 CL      -8.2692    -0.4286   -11.9129 Cl     46 CCL4  -0.0812 
 392 CL     -17.7742    -2.9374    -3.9165 Cl     47 CCL4  -0.0812 
 393 C      -19.1670    -2.4201    -2.9525 C.3    47 CCL4   0.3246 
 394 CL     -19.6736    -3.7642    -1.8985 Cl     47 CCL4  -0.0812 
 395 CL     -20.5118    -1.9752    -4.0279 Cl     47 CCL4  -0.0812 
 396 CL     -18.7117    -1.0336    -1.9370 Cl     47 CCL4  -0.0812 
 397 CL     -20.2846    -3.8134    -7.4292 Cl     48 CCL4  -0.0812 
 398 C      -19.6819    -4.8795    -8.7225 C.3    48 CCL4   0.3246 
 399 CL     -21.0374    -5.3074    -9.7849 Cl     48 CCL4  -0.0812 
 400 CL     -19.0199    -6.3651    -7.9992 Cl     48 CCL4  -0.0812 
 401 CL     -18.4151    -4.0591    -9.6606 Cl     48 CCL4  -0.0812 
 402 CL     -15.2164    -2.6291    -8.9056 Cl     49 CCL4  -0.0812 
 403 C      -15.9031    -2.7816    -7.2745 C.3    49 CCL4   0.3246 
 404 CL     -17.4252    -1.8735    -7.1862 Cl     49 CCL4  -0.0812 
 405 CL     -14.7478    -2.0903    -6.1198 Cl     49 CCL4  -0.0812 
 406 CL     -16.1848    -4.4941    -6.8699 Cl     49 CCL4  -0.0812 
 407 CL     -25.3016    -7.8882    -2.8073 Cl     50 CCL4  -0.0812 
 408 C      -26.6007    -8.3163    -3.9408 C.3    50 CCL4   0.3246 
 409 CL     -28.0991    -7.4660    -3.4898 Cl     50 CCL4  -0.0812 
 410 CL     -26.8880   -10.0662    -3.9185 Cl     50 CCL4  -0.0812 
 411 CL     -26.0985    -7.8411    -5.5727 Cl     50 CCL4  -0.0812 
 412 CL     -24.8811    -2.5962    -5.2191 Cl     51 CCL4  -0.0812 
 413 C      -25.6145    -3.7474    -6.3602 C.3    51 CCL4   0.3246 
 414 CL     -26.1380    -2.8766    -7.8154 Cl     51 CCL4  -0.0812 
 415 CL     -27.0118    -4.5207    -5.5772 Cl     51 CCL4  -0.0812 
 416 CL     -24.4055    -4.9721    -6.8178 Cl     51 CCL4  -0.0812 
 417 CL     -10.8221    -1.0181    -3.9338 Cl     52 CCL4  -0.0812 
 418 C       -9.7624    -1.1728    -2.5121 C.3    52 CCL4   0.3246 
 419 CL      -8.1779    -1.7871    -3.0318 Cl     52 CCL4  -0.0812 
 420 CL     -10.4855    -2.2981    -1.3345 Cl     52 CCL4  -0.0812 
 421 CL      -9.5598     0.4299    -1.7602 Cl     52 CCL4  -0.0812 
 422 CL     -18.1657     3.2797    -6.5806 Cl     53 CCL4  -0.0812 
 423 C      -19.0658     1.7881    -6.2347 C.3    53 CCL4   0.3246 
 424 CL     -18.1093     0.7739    -5.1254 Cl     53 CCL4  -0.0812 
 425 CL     -19.3359     0.9249    -7.7618 Cl     53 CCL4  -0.0812 
 426 CL     -20.6354     2.1647    -5.4957 Cl     53 CCL4  -0.0812 
 427 CL     -28.4741     1.7121    -3.3868 Cl     54 CCL4  -0.0812 
 428 C      -28.3966     0.3201    -2.2851 C.3    54 CCL4   0.3246 
 429 CL     -29.0531    -1.1212    -3.1013 Cl     54 CCL4  -0.0812 
 430 CL     -29.3410     0.6580    -0.8094 Cl     54 CCL4  -0.0812 
 431 CL     -26.6986     0.0140    -1.8434 Cl     54 CCL4  -0.0812 
 432 CL     -23.1524    -4.7350    -2.6610 Cl     55 CCL4  -0.0812 
 433 C      -23.6183    -4.3242    -0.9903 C.3    55 CCL4   0.3246 
 434 CL     -23.1787    -5.6745     0.0816 Cl     55 CCL4  -0.0812 
 435 CL     -25.3791    -4.0721    -0.9294 Cl     55 CCL4  -0.0812 
 436 CL     -22.7903    -2.8346    -0.4931 Cl     55 CCL4  -0.0812 
 437 CL     -19.5869    -7.8577    -2.1525 Cl     56 CCL4  -0.0812 
 438 C      -19.9908    -7.7298    -3.8842 C.3    56 CCL4   0.3246 
 439 CL     -18.8854    -8.7470    -4.8359 Cl     56 CCL4  -0.0812 
 440 CL     -19.8049    -6.0473    -4.4202 Cl     56 CCL4  -0.0812 
 441 CL     -21.6667    -8.2607    -4.1563 Cl     56 CCL4  -0.0812 
 442 CL     -11.0997    -2.4861    -9.4417 Cl     57 CCL4  -0.0812 
 443 C      -10.7115    -2.0088    -7.7741 C.3    57 CCL4   0.3246 
 444 CL     -11.4516    -0.4270    -7.4321 Cl     57 CCL4  -0.0812 
 445 CL      -8.9543    -1.9030    -7.5623 Cl     57 CCL4  -0.0812 
 446 CL     -11.3513    -3.2077    -6.6490 Cl     57 CCL4  -0.0812 
 447 CL     -28.3956   -10.2097    -7.3621 Cl     58 CCL4  -0.0812 
 448 C      -28.7092    -8.6888    -8.2196 C.3    58 CCL4   0.3246 
 449 CL     -29.8726    -8.9850    -9.5296 Cl     58 CCL4  -0.0812 
 450 CL     -27.1995    -8.0703    -8.9259 Cl     58 CCL4  -0.0812 
 451 CL     -29.3611    -7.5068    -7.0589 Cl     58 CCL4  -0.0812 
 452 CL     -15.5521    -4.6846    -1.6660 Cl     59 CCL4  -0.0812 
 453 C      -15.2478    -5.1986     0.0112 C.3    59 CCL4   0.3246 
 454 CL     -13.5768    -4.7958     0.4743 Cl     59 CCL4  -0.0812 
 455 CL     -15.4897    -6.9570     0.1472 Cl     59 CCL4  -0.0812 
 456 CL     -16.3691    -4.3398     1.0915 Cl     59 CCL4  -0.0812 
 457 CL     -13.0296    -6.7889   -17.2020 Cl     60 CCL4  -0.0812 
 458 C      -12.7489    -5.2795   -16.3032 C.3    60 CCL4   0.3246 
 459 CL     -12.8243    -3.8900   -17.4083 Cl     60 CCL4  -0.0812 
 460 CL     -11.1321    -5.3323   -15.5656 Cl     60 CCL4  -0.0812 
 461 CL     -13.9705    -5.1004   -15.0215 Cl     60 CCL4  -0.0812 
 462 CL     -16.2301   -12.8395   -15.0559 Cl     61 CCL4  -0.0812 
 463 C      -16.4052   -14.3093   -14.0708 C.3    61 CCL4   0.3246 
 464 CL     -16.7996   -13.8450   -12.3987 Cl     61 CCL4  -0.0812 
 465 CL     -14.8677   -15.2020   -14.0684 Cl     61 CCL4  -0.0812 
 466 CL     -17.6882   -15.3446   -14.7393 Cl     61 CCL4  -0.0812 
 467 CL     -10.1371   -11.3608     1.5062 Cl     62 CCL4  -0.0812 
 468 C       -9.5171   -12.7551     2.4229 C.3    62 CCL4   0.3246 
 469 CL     -10.8827   -13.7667     2.9628 Cl     62 CCL4  -0.0812 
 470 CL      -8.6107   -12.1701     3.8432 Cl     62 CCL4  -0.0812 
 471 CL      -8.4486   -13.7361     1.3903 Cl     62 CCL4  -0.0812 
 472 CL      -9.5784   -10.9796    22.8747 Cl     63 CCL4  -0.0812 
 473 C       -9.2865    -9.8132    21.5628 C.3    63 CCL4   0.3246 
 474 CL      -8.1304   -10.5216    20.4105 Cl     63 CCL4  -0.0812 
 475 CL      -8.6171    -8.3008    22.2260 Cl     63 CCL4  -0.0812 
 476 CL     -10.8258    -9.4810    20.7325 Cl     63 CCL4  -0.0812 
 477 CL     -11.3780   -16.0796   -14.9446 Cl     64 CCL4  -0.0812 
 478 C      -10.7565   -14.5100   -14.3835 C.3    64 CCL4   0.3246 
 479 CL     -10.5619   -14.5524   -12.6166 Cl     64 CCL4  -0.0812 
 480 CL     -11.9193   -13.2387   -14.8152 Cl     64 CCL4  -0.0812 
 481 CL      -9.1992   -14.1638   -15.1706 Cl     64 CCL4  -0.0812 
 482 CL      -9.4181    -6.7265   -12.4709 Cl     65 CCL4  -0.0812 
 483 C      -10.1603    -8.2742   -12.9425 C.3    65 CCL4   0.3246 
 484 CL     -11.8445    -8.0359   -13.4592 Cl     65 CCL4  -0.0812 
 485 CL     -10.1194    -9.3883   -11.5541 Cl     65 CCL4  -0.0812 
 486 CL      -9.2193    -8.9752   -14.2713 Cl     65 CCL4  -0.0812 
 487 CL     -14.9917   -12.9873   -18.6654 Cl     66 CCL4  -0.0812 
 488 C      -14.0736   -14.5086   -18.7214 C.3    66 CCL4   0.3246 
 489 CL     -14.1295   -15.1610   -20.3735 Cl     66 CCL4  -0.0812 
 490 CL     -14.7829   -15.6789   -17.5836 Cl     66 CCL4  -0.0812 
 491 CL     -12.3835   -14.1790   -18.2729 Cl     66 CCL4  -0.0812 
 492 CL     -14.3517     0.2141   -11.9033 Cl     67 CCL4  -0.0812 
 493 C      -12.6591     0.1865   -12.4483 C.3    67 CCL4   0.3246 
 494 CL     -11.5953     0.6587   -11.1014 Cl     67 CCL4  -0.0812 
 495 CL     -12.4746     1.3081   -13.8152 Cl     67 CCL4  -0.0812 
 496 CL     -12.2656    -1.4633   -12.9868 Cl     67 CCL4  -0.0812 
 497 CL     -17.0445    -0.7795   -18.4956 Cl     68 CCL4  -0.0812 
 498 C      -15.6466    -0.2080   -17.5503 C.3    68 CCL4   0.3246 
 499 CL     -15.5231    -1.1283   -16.0259 Cl     68 CCL4  -0.0812 
 500 CL     -15.8338     1.5262   -17.1913 Cl     68 CCL4  -0.0812 
 501 CL     -14.1643    -0.4405   -18.5089 Cl     68 CCL4  -0.0812 
 502 CL     -11.6093   -12.6139    -9.6456 Cl     69 CCL4  -0.0812 
 503 C      -13.2923   -12.8353   -10.1760 C.3    69 CCL4   0.3246 
 504 CL     -13.6595   -14.5779   -10.2858 Cl     69 CCL4  -0.0812 
 505 CL     -13.5235   -12.0757   -11.7698 Cl     69 CCL4  -0.0812 
 506 CL     -14.3852   -12.0743    -8.9921 Cl     69 CCL4  -0.0812 
 507 CL     -16.3679    -8.7961   -10.7181 Cl     70 CCL4  -0.0812 
 508 C      -17.0196    -8.2960   -12.2958 C.3    70 CCL4   0.3246 
 509 CL     -18.0367    -9.6220   -12.8899 Cl     70 CCL4  -0.0812 
 510 CL     -15.6814    -8.0029   -13.4370 Cl     70 CCL4  -0.0812 
 511 CL     -18.0022    -6.8261   -12.1198 Cl     70 CCL4  -0.0812 
 512 CL     -13.2195    22.5174    -7.4221 Cl     71 CCL4  -0.0812 
 513 C      -11.5109    22.5156    -7.9293 C.3    71 CCL4   0.3246 
 514 CL     -11.4103    22.2120    -9.6759 Cl     71 CCL4  -0.0812 
 515 CL     -10.6423    21.2425    -7.0481 Cl     71 CCL4  -0.0812 
 516 CL     -10.7850    24.0978    -7.5804 Cl     71 CCL4  -0.0812 
 517 CL      15.1986   -12.9915    -5.1273 Cl     72 CCL4  -0.0812 
 518 C       15.3230   -13.8868    -3.5911 C.3    72 CCL4   0.3246 
 519 CL      15.5416   -12.7434    -2.2438 Cl     72 CCL4  -0.0812 
 520 CL      13.8361   -14.8352    -3.3262 Cl     72 CCL4  -0.0812 
 521 CL      16.7100   -15.0035    -3.6589 Cl     72 CCL4  -0.0812 
 522 CL     -10.5958    -5.0527     2.3768 Cl     73 CCL4  -0.0812 
 523 C      -10.0681    -6.5368     1.5403 C.3    73 CCL4   0.3246 
 524 CL      -9.4275    -6.1219    -0.0668 Cl     73 CCL4  -0.0812 
 525 CL     -11.4413    -7.6530     1.3573 Cl     73 CCL4  -0.0812 
 526 CL      -8.8120    -7.3388     2.4988 Cl     73 CCL4  -0.0812 
 527 CL     -14.5812     4.7386    -8.4678 Cl     74 CCL4  -0.0812 
 528 C      -13.7148     3.4360    -9.2966 C.3    74 CCL4   0.3246 
 529 CL     -11.9687     3.5590    -8.9789 Cl     74 CCL4  -0.0812 
 530 CL     -13.9992     3.5933   -11.0449 Cl     74 CCL4  -0.0812 
 531 CL     -14.3326     1.8701    -8.7086 Cl     74 CCL4  -0.0812 
 532 CL     -15.7924     1.7832    -2.2738 Cl     75 CCL4  -0.0812 
 533 C      -14.5526     0.6349    -2.8244 C.3    75 CCL4   0.3246 
 534 CL     -14.0353     1.0539    -4.4736 Cl     75 CCL4  -0.0812 
 535 CL     -15.2054    -1.0187    -2.7875 Cl     75 CCL4  -0.0812 
 536 CL     -13.1580     0.7228    -1.7241 Cl     75 CCL4  -0.0812 
 537 CL     -12.2806   -15.2821    -0.5194 Cl     76 CCL4  -0.0812 
 538 C      -13.1858   -14.5228    -1.8467 C.3    76 CCL4   0.3246 
 539 CL     -14.3614   -15.6739    -2.5196 Cl     76 CCL4  -0.0812 
 540 CL     -12.0548   -14.0025    -3.1143 Cl     76 CCL4  -0.0812 
 541 CL     -14.0480   -13.0978    -1.2281 Cl     76 CCL4  -0.0812 
 542 CL      -9.2051    24.0484    -4.0442 Cl     77 CCL4  -0.0812 
 543 C       -9.8192    22.5731    -3.2656 C.3    77 CCL4   0.3246 
 544 CL      -9.5499    22.6807    -1.5112 Cl     77 CCL4  -0.0812 
 545 CL      -8.9307    21.1739    -3.9112 Cl     77 CCL4  -0.0812 
 546 CL     -11.5627    22.4101    -3.5986 Cl     77 CCL4  -0.0812 
 547 CL     -10.0398    -4.8874    -3.9732 Cl     78 CCL4  -0.0812 
 548 C      -11.7438    -5.4013    -3.8924 C.3    78 CCL4   0.3246 
 549 CL     -12.1483    -6.3690    -5.3239 Cl     78 CCL4  -0.0812 
 550 CL     -12.8192    -3.9876    -3.7661 Cl     78 CCL4  -0.0812 
 551 CL     -11.9797    -6.4074    -2.4490 Cl     78 CCL4  -0.0812 
 552 CL     -17.4053    -6.7371    21.0993 Cl     79 CCL4  -0.0812 
 553 C      -17.4101    -4.9640    20.9970 C.3    79 CCL4   0.3246 
 554 CL     -16.2195    -4.2940    22.1314 Cl     79 CCL4  -0.0812 
 555 CL     -19.0353    -4.3340    21.3539 Cl     79 CCL4  -0.0812 
 556 CL     -16.9636    -4.4818    19.3408 Cl     79 CCL4  -0.0812 
 557 CL     -12.3582    -5.1435   -11.2976 Cl     80 CCL4  -0.0812 
 558 C      -13.4094    -6.0008   -10.1441 C.3    80 CCL4   0.3246 
 559 CL     -13.1139    -5.4065    -8.5006 Cl     80 CCL4  -0.0812 
 560 CL     -13.0689    -7.7469   -10.1892 Cl     80 CCL4  -0.0812 
 561 CL     -15.1028    -5.6869   -10.5726 Cl     80 CCL4  -0.0812 
 562 CL     -18.6337    -1.6538   -14.3696 Cl     81 CCL4  -0.0812 
 563 C      -18.4398    -3.3261   -13.7989 C.3    81 CCL4   0.3246 
 564 CL     -19.8376    -3.7740   -12.7995 Cl     81 CCL4  -0.0812 
 565 CL     -16.9432    -3.4165   -12.8469 Cl     81 CCL4  -0.0812 
 566 CL     -18.3290    -4.4376   -15.1792 Cl     81 CCL4  -0.0812 
 567 CL     -17.5510     1.7135   -13.5523 Cl     82 CCL4  -0.0812 
 568 C      -18.3624     1.5962   -11.9705 C.3    82 CCL4   0.3246 
 569 CL     -17.8115     2.9216   -10.9115 Cl     82 CCL4  -0.0812 
 570 CL     -17.9404     0.0355   -11.2208 Cl     82 CCL4  -0.0812 
 571 CL     -20.1251     1.7037   -12.2148 Cl     82 CCL4  -0.0812 
 572 CL     -20.3933   -11.3840     7.0936 Cl     83 CCL4  -0.0812 
 573 C      -19.2313   -10.7009     8.2405 C.3    83 CCL4   0.3246 
 574 CL     -19.4350   -11.4612     9.8284 Cl     83 CCL4  -0.0812 
 575 CL     -19.5463    -8.9614     8.4005 Cl     83 CCL4  -0.0812 
 576 CL     -17.5753   -10.9793     7.6515 Cl     83 CCL4  -0.0812 
 577 CL     -19.5127    21.2595    12.5208 Cl     84 CCL4  -0.0812 
 578 C      -21.1571    20.7557    12.0758 C.3    84 CCL4   0.3246 
 579 CL     -22.0935    20.4459    13.5599 Cl     84 CCL4  -0.0812 
 580 CL     -21.0746    19.2724    11.0976 Cl     84 CCL4  -0.0812 
 581 CL     -21.9141    22.0495    11.1237 Cl     84 CCL4  -0.0812 
 582 CL     -28.0445    -7.4628    11.7979 Cl     85 CCL4  -0.0812 
 583 C      -28.0647    -9.2181    12.1147 C.3    85 CCL4   0.3246 
 584 CL     -28.7736    -9.5240    13.7244 Cl     85 CCL4  -0.0812 
 585 CL     -26.3966    -9.8391    12.0603 Cl     85 CCL4  -0.0812 
 586 CL     -29.0467   -10.0337    10.8710 Cl     85 CCL4  -0.0812 
 587 CL     -27.0274    -0.0133    12.0075 Cl     86 CCL4  -0.0812 
 588 C      -26.2702     1.5708    11.7268 C.3    86 CCL4   0.3246 
 589 CL     -26.8422     2.7242    12.9537 Cl     86 CCL4  -0.0812 
 590 CL     -26.6817     2.1551    10.1020 Cl     86 CCL4  -0.0812 
 591 CL     -24.5026     1.4274    11.8491 Cl     86 CCL4  -0.0812 
 592 CL     -23.2900   -11.9888    11.5794 Cl     87 CCL4  -0.0812 
 593 C      -22.1106   -13.2277    12.0571 C.3    87 CCL4   0.3246 
 594 CL     -20.7778   -12.4587    12.9490 Cl     87 CCL4  -0.0812 
 595 CL     -21.5021   -14.0641    10.6105 Cl     87 CCL4  -0.0812 
 596 CL     -22.9065   -14.4063    13.1227 Cl     87 CCL4  -0.0812 
 597 CL     -24.9259    22.5329    12.5260 Cl     88 CCL4  -0.0812 
 598 C      -25.4706    22.3350    14.2017 C.3    88 CCL4   0.3246 
 599 CL     -24.2170    22.9528    15.3108 Cl     88 CCL4  -0.0812 
 600 CL     -25.7750    20.6068    14.5148 Cl     88 CCL4  -0.0812 
 601 CL     -26.9749    23.2506    14.4157 Cl     88 CCL4  -0.0812 
 602 CL     -18.2880     2.5590     7.3553 Cl     89 CCL4  -0.0812 
 603 C      -19.7903     3.2098     8.0532 C.3    89 CCL4   0.3246 
 604 CL     -21.0569     1.9586     8.0005 Cl     89 CCL4  -0.0812 
 605 CL     -20.2950     4.6440     7.1320 Cl     89 CCL4  -0.0812 
 606 CL     -19.5002     3.6771     9.7467 Cl     89 CCL4  -0.0812 
 607 CL     -26.8220     1.9118     6.3597 Cl     90 CCL4  -0.0812 
 608 C      -25.0767     1.5895     6.4364 C.3    90 CCL4   0.3246 
 609 CL     -24.2985     2.8927     7.3585 Cl     90 CCL4  -0.0812 
 610 CL     -24.4283     1.5414     4.7854 Cl     90 CCL4  -0.0812 
 611 CL     -24.7519     0.0289     7.2201 Cl     90 CCL4  -0.0812 
 612 CL     -17.6104   -13.4374     2.0020 Cl     91 CCL4  -0.0812 
 613 C      -16.5604   -14.4283     3.0315 C.3    91 CCL4   0.3246 
 614 CL     -16.9375   -16.1554     2.8008 Cl     91 CCL4  -0.0812 
 615 CL     -16.8188   -13.9458     4.7270 Cl     91 CCL4  -0.0812 
 616 CL     -14.8583   -14.1389     2.5896 Cl     91 CCL4  -0.0812 
 617 CL     -21.3485   -14.5298     6.0835 Cl     92 CCL4  -0.0812 
 618 C      -20.1687   -15.6061     6.8701 C.3    92 CCL4   0.3246 
 619 CL     -21.0347   -16.8339     7.8170 Cl     92 CCL4  -0.0812 
 620 CL     -19.1110   -14.6750     7.9515 Cl     92 CCL4  -0.0812 
 621 CL     -19.1777   -16.4159     5.6413 Cl     92 CCL4  -0.0812 
 622 CL     -26.9831   -14.7734     3.3051 Cl     93 CCL4  -0.0812 
 623 C      -27.0070   -15.9041     4.6796 C.3    93 CCL4   0.3246 
 624 CL     -28.2288   -15.3719     5.8618 Cl     93 CCL4  -0.0812 
 625 CL     -25.4052   -15.9357     5.4567 Cl     93 CCL4  -0.0812 
 626 CL     -27.4516   -17.5222     4.0934 Cl     93 CCL4  -0.0812 
 627 CL     -23.3736    -9.7876     6.0363 Cl     94 CCL4  -0.0812 
 628 C      -24.4428   -11.0241     6.7447 C.3    94 CCL4   0.3246 
 629 CL     -25.9692   -10.2627     7.2599 Cl     94 CCL4  -0.0812 
 630 CL     -23.6515   -11.7521     8.1617 Cl     94 CCL4  -0.0812 
 631 CL     -24.7279   -12.2950     5.5309 Cl     94 CCL4  -0.0812 
 632 CL      14.3787   -12.2909     4.9826 Cl     95 CCL4  -0.0812 
 633 C       15.6748   -11.4538     5.8609 C.3    95 CCL4   0.3246 
 634 CL      15.6423   -11.9453     7.5719 Cl     95 CCL4  -0.0812 
 635 CL      15.4569    -9.6913     5.7365 Cl     95 CCL4  -0.0812 
 636 CL      17.2252   -11.9150     5.1373 Cl     95 CCL4  -0.0812 
 637 CL     -24.9854   -15.9549     9.2959 Cl     96 CCL4  -0.0812 
 638 C      -26.3779   -14.9113     9.6702 C.3    96 CCL4   0.3246 
 639 CL     -26.5592   -13.6849     8.3967 Cl     96 CCL4  -0.0812 
 640 CL     -26.1122   -14.1157    11.2364 Cl     96 CCL4  -0.0812 
 641 CL     -27.8611   -15.8898     9.7710 Cl     96 CCL4  -0.0812 
 642 CL      -5.9473   -10.2908    12.8223 Cl     97 CCL4  -0.0812 
 643 C       -6.3022   -11.9772    12.3617 C.3    97 CCL4   0.3246 
 644 CL      -7.7572   -12.5431    13.2201 Cl     97 CCL4  -0.0812 
 645 CL      -4.9210   -13.0080    12.8058 Cl     97 CCL4  -0.0812 
 646 CL      -6.5564   -12.0705    10.5982 Cl     97 CCL4  -0.0812 
 647 CL      -5.8916    20.4116    13.5852 Cl     98 CCL4  -0.0812 
 648 C       -5.9645    21.8766    12.5697 C.3    98 CCL4   0.3246 
 649 CL      -6.7807    21.4946    11.0351 Cl     98 CCL4  -0.0812 
 650 CL      -4.3068    22.4350    12.2410 Cl     98 CCL4  -0.0812 
 651 CL      -6.8568    23.1668    13.4143 Cl     98 CCL4  -0.0812 
 652 CL      14.0429     4.5703    12.8849 Cl     99 CCL4  -0.0812 
 653 C       14.0015     2.8492    13.3279 C.3    99 CCL4   0.3246 
 654 CL      12.3311     2.2503    13.2149 Cl     99 CCL4  -0.0812 
 655 CL      14.6035     2.6495    14.9921 Cl     99 CCL4  -0.0812 
 656 CL      15.0198     1.9138    12.2103 Cl     99 CCL4  -0.0812 
 657 CL     -27.3355     4.7299     3.8450 Cl    100 CCL4  -0.0812 
 658 C      -27.1469     3.6578     2.4356 C.3   100 CCL4   0.3246 
 659 CL     -28.0109     4.3339     1.0379 Cl    100 CCL4  -0.0812 
 660 CL     -27.8205     2.0593     2.8200 Cl    100 CCL4  -0.0812 
 661 CL     -25.4276     3.5084     2.0350 Cl    100 CCL4  -0.0812 
 662 CL      -7.9530   -17.5149     7.8143 Cl    101 CCL4  -0.0812 
 663 C       -6.6862   -16.3503     7.3455 C.3   101 CCL4   0.3246 
 664 CL      -5.4910   -16.2014     8.6525 Cl    101 CCL4  -0.0812 
 665 CL      -7.4143   -14.7498     7.0577 Cl    101 CCL4  -0.0812 
 666 CL      -5.8805   -16.9237     5.8638 Cl    101 CCL4  -0.0812 
 667 CL     -27.1342    23.8572    20.3388 Cl    102 CCL4  -0.0812 
 668 C      -27.0624    22.2556    19.5570 C.3   102 CCL4   0.3246 
 669 CL     -28.6392    21.4471    19.7121 Cl    102 CCL4  -0.0812 
 670 CL     -25.8171    21.2573    20.3467 Cl    102 CCL4  -0.0812 
 671 CL     -26.6623    22.4543    17.8354 Cl    102 CCL4  -0.0812 
 672 CL      -4.7436    21.5346    18.9511 Cl    103 CCL4  -0.0812 
 673 C       -6.4149    20.9884    18.6864 C.3   103 CCL4   0.3246 
 674 CL      -6.5041    20.0233    17.2068 Cl    103 CCL4  -0.0812 
 675 CL      -7.4833    22.3958    18.4938 Cl    103 CCL4  -0.0812 
 676 CL      -6.9559    20.0318    20.0862 Cl    103 CCL4  -0.0812 
 677 CL     -19.3796   -10.5954    16.5731 Cl    104 CCL4  -0.0812 
 678 C      -18.4490    -9.6658    17.7712 C.3   104 CCL4   0.3246 
 679 CL     -17.1017    -8.8312    16.9608 Cl    104 CCL4  -0.0812 
 680 CL     -17.7846   -10.7651    19.0023 Cl    104 CCL4  -0.0812 
 681 CL     -19.5049    -8.4634    18.5480 Cl    104 CCL4  -0.0812 
 682 CL     -22.8778    -8.9830    15.3134 Cl    105 CCL4  -0.0812 
 683 C      -24.4260    -8.5139    16.0565 C.3   105 CCL4   0.3246 
 684 CL     -24.1394    -7.3017    17.3218 Cl    105 CCL4  -0.0812 
 685 CL     -25.1801    -9.9481    16.7797 Cl    105 CCL4  -0.0812 
 686 CL     -25.5157    -7.8267    14.8281 Cl    105 CCL4  -0.0812 
 687 CL     -17.4028    23.3075    14.6050 Cl    106 CCL4  -0.0812 
 688 C      -18.3828    23.6555    16.0472 C.3   106 CCL4   0.3246 
 689 CL     -19.8978    24.4482    15.5457 Cl    106 CCL4  -0.0812 
 690 CL     -17.4658    24.7359    17.1231 Cl    106 CCL4  -0.0812 
 691 CL     -18.7628    22.1397    16.8923 Cl    106 CCL4  -0.0812 
 692 CL     -27.6287   -12.8975    14.2626 Cl    107 CCL4  -0.0812 
 693 C      -27.6156   -13.2410    16.0081 C.3   107 CCL4   0.3246 
 694 CL     -28.0478   -11.7729    16.9135 Cl    107 CCL4  -0.0812 
 695 CL     -26.0065   -13.8082    16.5046 Cl    107 CCL4  -0.0812 
 696 CL     -28.8180   -14.4927    16.3817 Cl    107 CCL4  -0.0812 
 697 CL      -6.4239    -0.8387    19.8065 Cl    108 CCL4  -0.0812 
 698 C       -6.6804    -0.7143    18.0539 C.3   108 CCL4   0.3246 
 699 CL      -5.3975     0.2859    17.3342 Cl    108 CCL4  -0.0812 
 700 CL      -8.2601     0.0477    17.7538 Cl    108 CCL4  -0.0812 
 701 CL      -6.6430    -2.3364    17.3327 Cl    108 CCL4  -0.0812 
 702 CL     -21.1249    -6.1144    10.2910 Cl    109 CCL4  -0.0812 
 703 C      -22.6063    -6.8556     9.6486 C.3   109 CCL4   0.3246 
 704 CL     -22.5794    -6.8224     7.8697 Cl    109 CCL4  -0.0812 
 705 CL     -24.0287    -5.9660    10.2315 Cl    109 CCL4  -0.0812 
 706 CL     -22.7155    -8.5374    10.2121 Cl    109 CCL4  -0.0812 
 707 CL     -23.1249    -0.8192    17.1491 Cl    110 CCL4  -0.0812 
 708 C      -23.4392    -1.3046    15.4667 C.3   110 CCL4   0.3246 
 709 CL     -23.8600    -3.0309    15.4254 Cl    110 CCL4  -0.0812 
 710 CL     -22.0025    -1.0038    14.4698 Cl    110 CCL4  -0.0812 
 711 CL     -24.7845    -0.3479    14.8125 Cl    110 CCL4  -0.0812 
 712 CL     -26.4130    -3.5504    12.9705 Cl    111 CCL4  -0.0812 
 713 C      -28.0160    -3.3496    13.7190 C.3   111 CCL4   0.3246 
 714 CL     -28.5776    -4.9140    14.3546 Cl    111 CCL4  -0.0812 
 715 CL     -29.1708    -2.7554    12.4994 Cl    111 CCL4  -0.0812 
 716 CL     -27.9088    -2.1801    15.0589 Cl    111 CCL4  -0.0812 
 717 CL     -22.3109    -3.0325     8.9100 Cl    112 CCL4  -0.0812 
 718 C      -22.8664    -2.1123    10.3277 C.3   112 CCL4   0.3246 
 719 CL     -22.6749    -3.0955    11.7924 Cl    112 CCL4  -0.0812 
 720 CL     -24.5818    -1.7035    10.1334 Cl    112 CCL4  -0.0812 
 721 CL     -21.8880    -0.6333    10.4883 Cl    112 CCL4  -0.0812 
 722 CL     -20.0036    -3.0737     2.6818 Cl    113 CCL4  -0.0812 
 723 C      -20.8022    -2.6810     4.2221 C.3   113 CCL4   0.3246 
 724 CL     -21.6691    -4.1186     4.8197 Cl    113 CCL4  -0.0812 
 725 CL     -21.9543    -1.3477     3.9735 Cl    113 CCL4  -0.0812 
 726 CL     -19.5669    -2.1785     5.4007 Cl    113 CCL4  -0.0812 
 727 CL     -26.7603    -8.0098     4.1477 Cl    114 CCL4  -0.0812 
 728 C      -26.3029    -6.7404     2.9854 C.3   114 CCL4   0.3246 
 729 CL     -27.3041    -5.3009     3.2971 Cl    114 CCL4  -0.0812 
 730 CL     -26.5956    -7.2888     1.3193 Cl    114 CCL4  -0.0812 
 731 CL     -24.5825    -6.3427     3.2082 Cl    114 CCL4  -0.0812 
 732 CL     -26.7844    -1.1991     4.1166 Cl    115 CCL4  -0.0812 
 733 C      -26.1668    -1.5543     2.4834 C.3   115 CCL4   0.3246 
 734 CL     -25.3943    -0.1194     1.7712 Cl    115 CCL4  -0.0812 
 735 CL     -27.5106    -2.0722     1.4354 Cl    115 CCL4  -0.0812 
 736 CL     -24.9469    -2.8469     2.5795 Cl    115 CCL4  -0.0812 
 737 CL      15.5909    -0.0048     6.2543 Cl    116 CCL4  -0.0812 
 738 C       15.6607    -0.5937     7.9274 C.3   116 CCL4   0.3246 
 739 CL      14.9613    -2.2228     7.9992 Cl    116 CCL4  -0.0812 
 740 CL      14.6927     0.4751     8.9714 Cl    116 CCL4  -0.0812 
 741 CL      17.3440    -0.6642     8.4895 Cl    116 CCL4  -0.0812 
 742 CL     -26.6156    -6.5606     7.9637 Cl    117 CCL4  -0.0812 
 743 C      -26.8898    -4.8075     7.8083 C.3   117 CCL4   0.3246 
 744 CL     -28.2029    -4.5386     6.6453 Cl    117 CCL4  -0.0812 
 745 CL     -25.4069    -4.0311     7.1981 Cl    117 CCL4  -0.0812 
 746 CL     -27.3266    -4.1234     9.3919 Cl    117 CCL4  -0.0812 
 747 CL      -8.7732    -6.8205    15.8883 Cl    118 CCL4  -0.0812 
 748 C       -9.1920    -7.6105    17.4262 C.3   118 CCL4   0.3246 
 749 CL      -7.8369    -7.4449    18.5645 Cl    118 CCL4  -0.0812 
 750 CL      -9.5239    -9.3359    17.1509 Cl    118 CCL4  -0.0812 
 751 CL     -10.6383    -6.8267    18.1044 Cl    118 CCL4  -0.0812 
 752 CL      -7.1425    -3.6655    14.1438 Cl    119 CCL4  -0.0812 
 753 C       -8.5342    -2.7459    13.5351 C.3   119 CCL4   0.3246 
 754 CL      -9.9715    -3.8002    13.5479 Cl    119 CCL4  -0.0812 
 755 CL      -8.1882    -2.2515    11.8668 Cl    119 CCL4  -0.0812 
 756 CL      -8.7997    -1.2979    14.5275 Cl    119 CCL4  -0.0812 
 757 CL     -18.9249    -8.7314     2.1861 Cl    120 CCL4  -0.0812 
 758 C      -20.0726    -9.3576     3.3942 C.3   120 CCL4   0.3246 
 759 CL     -19.6718   -11.0490     3.7492 Cl    120 CCL4  -0.0812 
 760 CL     -21.7290    -9.2461     2.7511 Cl    120 CCL4  -0.0812 
 761 CL     -19.9607    -8.3973     4.8869 Cl    120 CCL4  -0.0812 
 762 CL     -21.5242    -4.9661    17.3141 Cl    121 CCL4  -0.0812 
 763 C      -20.5681    -4.9359    15.8129 C.3   121 CCL4   0.3246 
 764 CL     -21.5821    -5.3560    14.4087 Cl    121 CCL4  -0.0812 
 765 CL     -19.2490    -6.1175    15.9326 Cl    121 CCL4  -0.0812 
 766 CL     -19.8644    -3.3182    15.6099 Cl    121 CCL4  -0.0812 
 767 CL     -18.3746     1.9136    19.2616 Cl    122 CCL4  -0.0812 
 768 C      -19.9349     1.3448    18.6269 C.3   122 CCL4   0.3246 
 769 CL     -19.8132    -0.4067    18.3409 Cl    122 CCL4  -0.0812 
 770 CL     -20.2763     2.1527    17.0829 Cl    122 CCL4  -0.0812 
 771 CL     -21.2291     1.6631    19.8025 Cl    122 CCL4  -0.0812 
 772 CL     -13.0213    -3.3143    18.2639 Cl    123 CCL4  -0.0812 
 773 C      -11.4803    -2.4343    18.4200 C.3   123 CCL4   0.3246 
 774 CL     -11.7857    -0.6818    18.3491 Cl    123 CCL4  -0.0812 
 775 CL     -10.3914    -2.9192    17.1023 Cl    123 CCL4  -0.0812 
 776 CL     -10.7136    -2.8393    19.9723 Cl    123 CCL4  -0.0812 
 777 CL     -30.7611    -6.7962    19.7186 Cl    124 CCL4  -0.0812 
 778 C      -29.5985    -7.7794    18.7976 C.3   124 CCL4   0.3246 
 779 CL     -30.2285    -9.4286    18.6320 Cl    124 CCL4  -0.0812 
 780 CL     -28.0430    -7.7973    19.6470 Cl    124 CCL4  -0.0812 
 781 CL     -29.3696    -7.0842    17.1799 Cl    124 CCL4  -0.0812 
 782 CL     -16.3734   -12.0830    11.3454 Cl    125 CCL4  -0.0812 
 783 C      -16.8149   -13.3845    12.4727 C.3   125 CCL4   0.3246 
 784 CL     -17.4179   -12.6842    13.9971 Cl    125 CCL4  -0.0812 
 785 CL     -15.3836   -14.3951    12.7924 Cl    125 CCL4  -0.0812 
 786 CL     -18.0773   -14.3965    11.7338 Cl    125 CCL4  -0.0812 
 787 CL     -10.7444   -10.6270     7.6835 Cl    126 CCL4  -0.0812 
 788 C       -9.6551    -9.3696     7.0464 C.3   126 CCL4   0.3246 
 789 CL      -7.9960   -10.0105     6.9365 Cl    126 CCL4  -0.0812 
 790 CL      -9.6904    -7.9514     8.1200 Cl    126 CCL4  -0.0812 
 791 CL     -10.1998    -8.8920     5.4219 Cl    126 CCL4  -0.0812 
 792 CL     -11.6282   -16.8032    10.7280 Cl    127 CCL4  -0.0812 
 793 C      -10.8922   -15.2358    11.1482 C.3   127 CCL4   0.3246 
 794 CL     -10.8027   -15.0992    12.9197 Cl    127 CCL4  -0.0812 
 795 CL     -11.8790   -13.8973    10.5108 Cl    127 CCL4  -0.0812 
 796 CL      -9.2467   -15.1373    10.4650 Cl    127 CCL4  -0.0812 
 797 CL     -11.3056    -7.8054    11.4737 Cl    128 CCL4  -0.0812 
 798 C      -10.8191    -9.4006    12.0926 C.3   128 CCL4   0.3246 
 799 CL     -12.2488   -10.4583    12.1578 Cl    128 CCL4  -0.0812 
 800 CL     -10.1266    -9.2256    13.7151 Cl    128 CCL4  -0.0812 
 801 CL      -9.5969   -10.1243    11.0243 Cl    128 CCL4  -0.0812 
 802 CL      -9.6388    23.3096     4.9222 Cl    129 CCL4  -0.0812 
 803 C      -10.2149    21.9185     3.9814 C.3   129 CCL4   0.3246 
 804 CL      -9.9720    20.4235     4.9164 Cl    129 CCL4  -0.0812 
 805 CL      -9.2766    21.8298     2.4733 Cl    129 CCL4  -0.0812 
 806 CL     -11.9446    22.1400     3.6265 Cl    129 CCL4  -0.0812 
 807 CL     -13.9326   -13.4754     7.2997 Cl    130 CCL4  -0.0812 
 808 C      -13.7331   -15.2390     7.4501 C.3   130 CCL4   0.3246 
 809 CL     -14.5073   -16.0453     6.0668 Cl    130 CCL4  -0.0812 
 810 CL     -14.5063   -15.7935     8.9546 Cl    130 CCL4  -0.0812 
 811 CL     -12.0017   -15.6501     7.4400 Cl    130 CCL4  -0.0812 
 812 CL     -14.4377    -0.1685    13.3820 Cl    131 CCL4  -0.0812 
 813 C      -12.7092     0.2477    13.3568 C.3   131 CCL4   0.3246 
 814 CL     -12.0939     0.3130    15.0245 Cl    131 CCL4  -0.0812 
 815 CL     -12.5078     1.8276    12.5640 Cl    131 CCL4  -0.0812 
 816 CL     -11.8231    -0.9843    12.4283 Cl    131 CCL4  -0.0812 
 817 CL     -13.5339   -10.5218     5.0137 Cl    132 CCL4  -0.0812 
 818 C      -14.6481    -9.6991     3.8972 C.3   132 CCL4   0.3246 
 819 CL     -16.3018    -9.7777     4.5454 Cl    132 CCL4  -0.0812 
 820 CL     -14.5996   -10.5081     2.3113 Cl    132 CCL4  -0.0812 
 821 CL     -14.1642    -7.9980     3.7097 Cl    132 CCL4  -0.0812 
 822 CL     -12.5810   -11.9494    17.8591 Cl    133 CCL4  -0.0812 
 823 C      -12.7363   -11.5915    16.1171 C.3   133 CCL4   0.3246 
 824 CL     -14.1615   -12.4451    15.4825 Cl    133 CCL4  -0.0812 
 825 CL     -11.2734   -12.1564    15.2688 Cl    133 CCL4  -0.0812 
 826 CL     -12.9508    -9.8343    15.8937 Cl    133 CCL4  -0.0812 
 827 CL     -16.1408    -9.2597    13.5718 Cl    134 CCL4  -0.0812 
 828 C      -17.4082    -8.3180    12.7529 C.3   134 CCL4   0.3246 
 829 CL     -19.0158    -8.8675    13.2813 Cl    134 CCL4  -0.0812 
 830 CL     -17.2572    -8.5516    10.9987 Cl    134 CCL4  -0.0812 
 831 CL     -17.2195    -6.6071    13.1608 Cl    134 CCL4  -0.0812 
 832 CL     -13.4039    23.5186    15.8437 Cl    135 CCL4  -0.0812 
 833 C      -12.2508    22.6948    16.9263 C.3   135 CCL4   0.3246 
 834 CL     -11.1886    21.6233    15.9772 Cl    135 CCL4  -0.0812 
 835 CL     -13.1465    21.7194    18.1161 Cl    135 CCL4  -0.0812 
 836 CL     -11.2607    23.9151    17.7619 Cl    135 CCL4  -0.0812 
 837 CL     -16.9487     3.9889    16.8117 Cl    136 CCL4  -0.0812 
 838 C      -15.3859     3.1399    16.7327 C.3   136 CCL4   0.3246 
 839 CL     -14.5798     3.1976    18.3150 Cl    136 CCL4  -0.0812 
 840 CL     -14.3633     3.8949    15.4871 Cl    136 CCL4  -0.0812 
 841 CL     -15.6453     1.4357    16.3100 Cl    136 CCL4  -0.0812 
 842 CL     -16.8292    -7.0491     6.8255 Cl    137 CCL4  -0.0812 
 843 C      -17.5002    -5.5346     6.1793 C.3   137 CCL4   0.3246 
 844 CL     -16.3398    -4.2145     6.4699 Cl    137 CCL4  -0.0812 
 845 CL     -19.0334    -5.1678     6.9999 Cl    137 CCL4  -0.0812 
 846 CL     -17.7926    -5.7183     4.4339 Cl    137 CCL4  -0.0812 
 847 CL     -13.2347    -3.2492    14.8510 Cl    138 CCL4  -0.0812 
 848 C      -14.4499    -4.4682    14.4346 C.3   138 CCL4   0.3246 
 849 CL     -14.2579    -5.8608    15.5231 Cl    138 CCL4  -0.0812 
 850 CL     -14.2180    -4.9770    12.7440 Cl    138 CCL4  -0.0812 
 851 CL     -16.0679    -3.7629    14.6584 Cl    138 CCL4  -0.0812 
 852 CL     -18.7354    -2.4391     9.4456 Cl    139 CCL4  -0.0812 
 853 C      -18.0986    -3.4546    10.7602 C.3   139 CCL4   0.3246 
 854 CL     -19.2747    -3.5259    12.0901 Cl    139 CCL4  -0.0812 
 855 CL     -16.5864    -2.7354    11.3524 Cl    139 CCL4  -0.0812 
 856 CL     -17.7587    -5.0815    10.1405 Cl    139 CCL4  -0.0812 
 857 CL     -18.5671     0.6077    11.7213 Cl    140 CCL4  -0.0812 
 858 C      -18.7985     1.3726    13.3128 C.3   140 CCL4   0.3246 
 859 CL     -17.6554     2.7200    13.4978 Cl    140 CCL4  -0.0812 
 860 CL     -18.5237     0.1754    14.6001 Cl    140 CCL4  -0.0812 
 861 CL     -20.4586     2.0008    13.4259 Cl    140 CCL4  -0.0812 
 862 CL     -16.8473    16.0060   -19.0262 Cl    141 CCL4  -0.0812 
 863 C      -17.3958    16.6939   -17.4800 C.3   141 CCL4   0.3246 
 864 CL     -18.0271    15.3926   -16.4418 Cl    141 CCL4  -0.0812 
 865 CL     -18.6830    17.8801   -17.7881 Cl    141 CCL4  -0.0812 
 866 CL     -16.0245    17.5086   -16.6880 Cl    141 CCL4  -0.0812 
 867 CL     -20.8199     5.4624   -12.9615 Cl    142 CCL4  -0.0812 
 868 C      -21.4484     6.8470   -13.8896 C.3   142 CCL4   0.3246 
 869 CL     -22.9333     6.3889   -14.7579 Cl    142 CCL4  -0.0812 
 870 CL     -20.2208     7.3474   -15.0750 Cl    142 CCL4  -0.0812 
 871 CL     -21.8043     8.1879   -12.7806 Cl    142 CCL4  -0.0812 
 872 CL     -25.2137    17.3609   -13.0901 Cl    143 CCL4  -0.0812 
 873 C      -25.9866    15.7851   -13.3763 C.3   143 CCL4   0.3246 
 874 CL     -25.9993    14.8633   -11.8552 Cl    143 CCL4  -0.0812 
 875 CL     -25.0733    14.9203   -14.6377 Cl    143 CCL4  -0.0812 
 876 CL     -27.6583    16.0468   -13.9216 Cl    143 CCL4  -0.0812 
 877 CL     -21.9723     3.6492     2.0173 Cl    144 CCL4  -0.0812 
 878 C      -21.5903     4.0328     3.7090 C.3   144 CCL4   0.3246 
 879 CL     -20.9976     2.5572     4.5148 Cl    144 CCL4  -0.0812 
 880 CL     -23.0379     4.6500     4.5405 Cl    144 CCL4  -0.0812 
 881 CL     -20.3336     5.2903     3.7411 Cl    144 CCL4  -0.0812 
 882 CL     -19.6165    11.2466     1.7604 Cl    145 CCL4  -0.0812 
 883 C      -21.2102    10.6108     1.2977 C.3   145 CCL4   0.3246 
 884 CL     -21.1562    10.0844    -0.4020 Cl    145 CCL4  -0.0812 
 885 CL     -22.4417    11.8766     1.4896 Cl    145 CCL4  -0.0812 
 886 CL     -21.6161     9.2352     2.3556 Cl    145 CCL4  -0.0812 
 887 CL     -21.5213    13.9728   -13.8418 Cl    146 CCL4  -0.0812 
 888 C      -21.9938    12.3575   -13.2713 C.3   146 CCL4   0.3246 
 889 CL     -20.9112    11.8485   -11.9580 Cl    146 CCL4  -0.0812 
 890 CL     -21.8990    11.2006   -14.6152 Cl    146 CCL4  -0.0812 
 891 CL     -23.6549    12.3871   -12.6518 Cl    146 CCL4  -0.0812 
 892 CL     -27.1353     6.7224   -16.2473 Cl    147 CCL4  -0.0812 
 893 C      -28.6736     5.8858   -16.5424 C.3   147 CCL4   0.3246 
 894 CL     -28.7656     4.4713   -15.4748 Cl    147 CCL4  -0.0812 
 895 CL     -28.7521     5.3439   -18.2359 Cl    147 CCL4  -0.0812 
 896 CL     -30.0377     6.9677   -16.1906 Cl    147 CCL4  -0.0812 
 897 CL     -22.0340     6.0794    -9.2523 Cl    148 CCL4  -0.0812 
 898 C      -22.7752     4.6005    -8.5947 C.3   148 CCL4   0.3246 
 899 CL     -21.7950     3.1938    -9.0782 Cl    148 CCL4  -0.0812 
 900 CL     -24.4287     4.4370    -9.2372 Cl    148 CCL4  -0.0812 
 901 CL     -22.8318     4.7080    -6.8194 Cl    148 CCL4  -0.0812 
 902 CL     -25.1615     6.8775   -12.2414 Cl    149 CCL4  -0.0812 
 903 C      -26.3944     7.8701   -11.4476 C.3   149 CCL4   0.3246 
 904 CL     -25.6877     9.4741   -11.1374 Cl    149 CCL4  -0.0812 
 905 CL     -26.8640     7.1224    -9.9048 Cl    149 CCL4  -0.0812 
 906 CL     -27.8232     8.0110   -12.5087 Cl    149 CCL4  -0.0812 
 907 CL      -7.6274     4.4822    22.3747 Cl    150 CCL4  -0.0812 
 908 C       -7.2801     4.1654    20.6576 C.3   150 CCL4   0.3246 
 909 CL      -8.4331     2.9714    20.0175 Cl    150 CCL4  -0.0812 
 910 CL      -5.6245     3.5410    20.4733 Cl    150 CCL4  -0.0812 
 911 CL      -7.4343     5.6822    19.7428 Cl    150 CCL4  -0.0812 
 912 CL     -23.4983    15.2024     2.0745 Cl    151 CCL4  -0.0812 
 913 C      -24.6811    15.3735     0.7591 C.3   151 CCL4   0.3246 
 914 CL     -24.0185    16.4530    -0.4907 Cl    151 CCL4  -0.0812 
 915 CL     -26.1767    16.0466     1.4467 Cl    151 CCL4  -0.0812 
 916 CL     -25.0267    13.7767     0.0590 Cl    151 CCL4  -0.0812 
 917 CL      15.3719    16.2311     2.1278 Cl    152 CCL4  -0.0812 
 918 C       14.8426    14.8528     1.1320 C.3   152 CCL4   0.3246 
 919 CL      16.1833    13.6950     0.9918 Cl    152 CCL4  -0.0812 
 920 CL      14.3683    15.4275    -0.4821 Cl    152 CCL4  -0.0812 
 921 CL      13.4729    14.0359     1.9179 Cl    152 CCL4  -0.0812 
 922 CL     -20.1933    12.0770    21.6691 Cl    153 CCL4  -0.0812 
 923 C      -19.8879    10.3386    21.8739 C.3   153 CCL4   0.3246 
 924 CL     -21.3848     9.5431    22.4094 Cl    153 CCL4  -0.0812 
 925 CL     -18.5928    10.1153    23.0719 Cl    153 CCL4  -0.0812 
 926 CL     -19.3779     9.6501    20.3141 Cl    153 CCL4  -0.0812 
 927 CL     -22.5337    17.7072    20.3617 Cl    154 CCL4  -0.0812 
 928 C      -23.1476    16.7367    21.7225 C.3   154 CCL4   0.3246 
 929 CL     -24.8953    17.0158    21.9096 Cl    154 CCL4  -0.0812 
 930 CL     -22.3162    17.2277    23.2168 Cl    154 CCL4  -0.0812 
 931 CL     -22.8508    15.0072    21.4232 Cl    154 CCL4  -0.0812 
 932 CL      15.4297    11.5642    20.6656 Cl    155 CCL4  -0.0812 
 933 C       16.3242    13.0899    20.8455 C.3   155 CCL4   0.3246 
 934 CL      16.6458    13.3801    22.5686 Cl    155 CCL4  -0.0812 
 935 CL      15.3388    14.4328    20.2171 Cl    155 CCL4  -0.0812 
 936 CL      17.8616    13.0037    19.9513 Cl    155 CCL4  -0.0812 
 937 CL     -25.3759     9.5911   -14.6377 Cl    156 CCL4  -0.0812 
 938 C      -26.4633    10.8783   -15.2025 C.3   156 CCL4   0.3246 
 939 CL     -25.5745    11.9190   -16.3390 Cl    156 CCL4  -0.0812 
 940 CL     -27.0465    11.8291   -13.8134 Cl    156 CCL4  -0.0812 
 941 CL     -27.8636    10.1506   -16.0279 Cl    156 CCL4  -0.0812 
 942 CL      -6.2249    14.9738   -12.9085 Cl    157 CCL4  -0.0812 
 943 C       -6.0212    13.8790   -14.2984 C.3   157 CCL4   0.3246 
 944 CL      -6.6351    12.2707   -13.8755 Cl    157 CCL4  -0.0812 
 945 CL      -4.3052    13.7305   -14.7283 Cl    157 CCL4  -0.0812 
 946 CL      -6.9212    14.4881   -15.7003 Cl    157 CCL4  -0.0812 
 947 CL      -6.1574     6.9346   -11.9896 Cl    158 CCL4  -0.0812 
 948 C       -6.4740     8.4521   -12.8602 C.3   158 CCL4   0.3246 
 949 CL      -4.9181     9.2063   -13.2780 Cl    158 CCL4  -0.0812 
 950 CL      -7.4464     9.5418   -11.8429 Cl    158 CCL4  -0.0812 
 951 CL      -7.3671     8.1200   -14.3597 Cl    158 CCL4  -0.0812 
 952 CL      -8.4734    14.5166    -6.6543 Cl    159 CCL4  -0.0812 
 953 C       -8.5311    12.8684    -7.3164 C.3   159 CCL4   0.3246 
 954 CL      -8.1197    12.9050    -9.0482 Cl    159 CCL4  -0.0812 
 955 CL     -10.1696    12.2183    -7.0988 Cl    159 CCL4  -0.0812 
 956 CL      -7.3737    11.8316    -6.4410 Cl    159 CCL4  -0.0812 
 957 CL      -5.6356     8.4349    22.6899 Cl    160 CCL4  -0.0812 
 958 C       -6.7927     9.4519    21.8168 C.3   160 CCL4   0.3246 
 959 CL      -6.6984    11.1209    22.4282 Cl    160 CCL4  -0.0812 
 960 CL      -8.4325     8.8014    22.0440 Cl    160 CCL4  -0.0812 
 961 CL      -6.3930     9.4465    20.0826 Cl    160 CCL4  -0.0812 
 962 CL     -26.8390     8.9568    -4.1662 Cl    161 CCL4  -0.0812 
 963 C      -26.4238     8.4858    -5.8324 C.3   161 CCL4   0.3246 
 964 CL     -27.8919     7.9481    -6.6705 Cl    161 CCL4  -0.0812 
 965 CL     -25.2480     7.1512    -5.8088 Cl    161 CCL4  -0.0812 
 966 CL     -25.7218     9.8785    -6.6924 Cl    161 CCL4  -0.0812 
 967 CL     -20.1400     5.4840    -0.8748 Cl    162 CCL4  -0.0812 
 968 C      -19.0195     4.3730    -1.6953 C.3   162 CCL4   0.3246 
 969 CL     -17.3651     4.7466    -1.1659 Cl    162 CCL4  -0.0812 
 970 CL     -19.1122     4.5800    -3.4576 Cl    162 CCL4  -0.0812 
 971 CL     -19.4382     2.6943    -1.2810 Cl    162 CCL4  -0.0812 
 972 CL     -18.2880    12.2922    -1.3638 Cl    163 CCL4  -0.0812 
 973 C      -18.4291    14.0574    -1.2410 C.3   163 CCL4   0.3246 
 974 CL     -20.1272    14.4977    -0.9242 Cl    163 CCL4  -0.0812 
 975 CL     -17.8770    14.7564    -2.7830 Cl    163 CCL4  -0.0812 
 976 CL     -17.3975    14.6396     0.0838 Cl    163 CCL4  -0.0812 
 977 CL      -6.5788     7.3873    -5.9424 Cl    164 CCL4  -0.0812 
 978 C       -6.5990     6.4911    -7.4790 C.3   164 CCL4   0.3246 
 979 CL      -4.9673     5.9094    -7.8843 Cl    164 CCL4  -0.0812 
 980 CL      -7.1367     7.5866    -8.7599 Cl    164 CCL4  -0.0812 
 981 CL      -7.7174     5.1168    -7.3497 Cl    164 CCL4  -0.0812 
 982 CL      14.4537     6.5887    -1.6032 Cl    165 CCL4  -0.0812 
 983 C       14.6689     5.3855    -2.8923 C.3   165 CCL4   0.3246 
 984 CL      13.5867     5.7837    -4.2490 Cl    165 CCL4  -0.0812 
 985 CL      14.2610     3.7716    -2.2589 Cl    165 CCL4  -0.0812 
 986 CL      16.3572     5.4282    -3.4614 Cl    165 CCL4  -0.0812 
 987 CL     -19.4732    12.4291    -7.6209 Cl    166 CCL4  -0.0812 
 988 C      -19.3185    14.2016    -7.6445 C.3   166 CCL4   0.3246 
 989 CL     -19.5467    14.7813    -9.3119 Cl    166 CCL4  -0.0812 
 990 CL     -17.7022    14.6739    -7.0597 Cl    166 CCL4  -0.0812 
 991 CL     -20.5657    14.9228    -6.5941 Cl    166 CCL4  -0.0812 
 992 CL     -21.2603    17.8344    -8.6755 Cl    167 CCL4  -0.0812 
 993 C      -23.0196    17.6230    -8.8227 C.3   167 CCL4   0.3246 
 994 CL     -23.7509    17.6715    -7.2031 Cl    167 CCL4  -0.0812 
 995 CL     -23.3632    16.0483    -9.5793 Cl    167 CCL4  -0.0812 
 996 CL     -23.6921    18.9320    -9.8299 Cl    167 CCL4  -0.0812 
 997 CL     -17.9553     6.0952    -8.5869 Cl    168 CCL4  -0.0812 
 998 C      -17.7137     7.8293    -8.8982 C.3   168 CCL4   0.3246 
 999 CL     -19.0628     8.4143    -9.9032 Cl    168 CCL4  -0.0812 
1000 CL     -16.1714     8.0770    -9.7573 Cl    168 CCL4  -0.0812 
1001 CL     -17.6929     8.7299    -7.3642 Cl    168 CCL4  -0.0812 
1002 CL     -19.5923     8.0535    -3.0128 Cl    169 CCL4  -0.0812 
1003 C      -20.6860     8.3934    -4.3693 C.3   169 CCL4   0.3246 
1004 CL     -20.3970    10.0558    -4.9426 Cl    169 CCL4  -0.0812 
1005 CL     -22.3886     8.2489    -3.8546 Cl    169 CCL4  -0.0812 
1006 CL     -20.3731     7.2623    -5.7101 Cl    169 CCL4  -0.0812 
1007 CL     -14.5599    16.6355    -6.3421 Cl    170 CCL4  -0.0812 
1008 C      -13.7610    15.8736    -4.9474 C.3   170 CCL4   0.3246 
1009 CL     -14.1314    14.1321    -4.9250 Cl    170 CCL4  -0.0812 
1010 CL     -14.3695    16.6138    -3.4469 Cl    170 CCL4  -0.0812 
1011 CL     -11.9974    16.1059    -5.0498 Cl    170 CCL4  -0.0812 
1012 CL     -26.1669    13.2591    -4.5983 Cl    171 CCL4  -0.0812 
1013 C      -24.4429    12.9918    -4.2389 C.3   171 CCL4   0.3246 
1014 CL     -23.5442    12.8765    -5.7705 Cl    171 CCL4  -0.0812 
1015 CL     -24.2485    11.4735    -3.3305 Cl    171 CCL4  -0.0812 
1016 CL     -23.8079    14.3560    -3.2914 Cl    171 CCL4  -0.0812 
1017 CL      -7.8368    16.7317    -3.9191 Cl    172 CCL4  -0.0812 
1018 C       -7.2882    15.4713    -2.7938 C.3   172 CCL4   0.3246 
1019 CL      -5.5250    15.3052    -2.9208 Cl    172 CCL4  -0.0812 
1020 CL      -8.0526    13.9193    -3.1988 Cl    172 CCL4  -0.0812 
1021 CL      -7.7497    15.9486    -1.1462 Cl    172 CCL4  -0.0812 
1022 CL     -26.4750    12.2702    -9.2597 Cl    173 CCL4  -0.0812 
1023 C      -28.2232    11.9929    -9.0849 C.3   173 CCL4   0.3246 
1024 CL     -29.1106    13.3061    -9.8975 Cl    173 CCL4  -0.0812 
1025 CL     -28.6382    11.9837    -7.3529 Cl    173 CCL4  -0.0812 
1026 CL     -28.6811    10.4260    -9.7983 Cl    173 CCL4  -0.0812 
1027 CL      -9.9476     6.8295   -12.3916 Cl    174 CCL4  -0.0812 
1028 C       -9.3789     5.1460   -12.3373 C.3   174 CCL4   0.3246 
1029 CL     -10.7697     4.0772   -12.5784 Cl    174 CCL4  -0.0812 
1030 CL      -8.6660     4.8384   -10.7396 Cl    174 CCL4  -0.0812 
1031 CL      -8.1818     4.8330   -13.6183 Cl    174 CCL4  -0.0812 
1032 CL     -23.3128     7.0969    -0.6913 Cl    175 CCL4  -0.0812 
1033 C      -24.7418     7.6912     0.1803 C.3   175 CCL4   0.3246 
1034 CL     -24.7198     7.0099     1.8251 Cl    175 CCL4  -0.0812 
1035 CL     -26.2100     7.1468    -0.6674 Cl    175 CCL4  -0.0812 
1036 CL     -24.7225     9.4707     0.2424 Cl    175 CCL4  -0.0812 
1037 CL      -8.4166    16.6671    -9.5726 Cl    176 CCL4  -0.0812 
1038 C       -9.3244    17.9692    -8.7686 C.3   176 CCL4   0.3246 
1039 CL      -8.4745    18.4535    -7.2852 Cl    176 CCL4  -0.0812 
1040 CL     -10.9609    17.3970    -8.3685 Cl    176 CCL4  -0.0812 
1041 CL      -9.4218    19.3558    -9.8735 Cl    176 CCL4  -0.0812 
1042 CL     -26.8240    18.3759    -1.1944 Cl    177 CCL4  -0.0812 
1043 C      -27.3775    17.2812    -2.4808 C.3   177 CCL4   0.3246 
1044 CL     -29.0330    17.7297    -2.9539 Cl    177 CCL4  -0.0812 
1045 CL     -27.3676    15.6016    -1.8992 Cl    177 CCL4  -0.0812 
1046 CL     -26.3086    17.4228    -3.8983 Cl    177 CCL4  -0.0812 
1047 CL     -18.9853    17.6578    -1.5833 Cl    178 CCL4  -0.0812 
1048 C      -19.6690    18.5071    -2.9793 C.3   178 CCL4   0.3246 
1049 CL     -18.4637    18.6074    -4.2880 Cl    178 CCL4  -0.0812 
1050 CL     -20.1233    20.1347    -2.4242 Cl    178 CCL4  -0.0812 
1051 CL     -21.1103    17.6379    -3.5623 Cl    178 CCL4  -0.0812 
1052 CL     -29.2598    18.4765    -6.8992 Cl    179 CCL4  -0.0812 
1053 C      -28.4612    17.4863    -8.1463 C.3   179 CCL4   0.3246 
1054 CL     -29.5502    17.2811    -9.5387 Cl    179 CCL4  -0.0812 
1055 CL     -28.0551    15.8866    -7.4713 Cl    179 CCL4  -0.0812 
1056 CL     -26.9655    18.2803    -8.6752 Cl    179 CCL4  -0.0812 
1057 CL     -16.1918    19.5860    -1.7939 Cl    180 CCL4  -0.0812 
1058 C      -15.6768    19.1798    -0.1446 C.3   180 CCL4   0.3246 
1059 CL     -14.3069    20.2285     0.2797 Cl    180 CCL4  -0.0812 
1060 CL     -15.1793    17.4774    -0.0418 Cl    180 CCL4  -0.0812 
1061 CL     -17.0114    19.4861     0.9897 Cl    180 CCL4  -0.0812 
1062 CL     -11.8402    19.2963   -18.4007 Cl    181 CCL4  -0.0812 
1063 C      -11.8565    20.8051   -17.4613 C.3   181 CCL4   0.3246 
1064 CL     -11.8708    22.1903   -18.5749 Cl    181 CCL4  -0.0812 
1065 CL     -10.4017    20.8781   -16.4365 Cl    181 CCL4  -0.0812 
1066 CL     -13.3119    20.8637   -16.4382 Cl    181 CCL4  -0.0812 
1067 CL     -17.7332    12.7075   -13.6831 Cl    182 CCL4  -0.0812 
1068 C      -17.2067    11.3418   -12.6704 C.3   182 CCL4   0.3246 
1069 CL     -17.4236    11.7446   -10.9495 Cl    182 CCL4  -0.0812 
1070 CL     -15.4851    11.0001   -12.9691 Cl    182 CCL4  -0.0812 
1071 CL     -18.1527     9.8845   -13.0656 Cl    182 CCL4  -0.0812 
1072 CL     -10.3405    13.6948     1.4189 Cl    183 CCL4  -0.0812 
1073 C       -9.1666    12.5679     2.1470 C.3   183 CCL4   0.3246 
1074 CL     -10.0108    11.4282     3.2221 Cl    183 CCL4  -0.0812 
1075 CL      -7.9818    13.5023     3.0922 Cl    183 CCL4  -0.0812 
1076 CL      -8.3342    11.6664     0.8591 Cl    183 CCL4  -0.0812 
1077 CL     -10.2845    14.9642    23.8878 Cl    184 CCL4  -0.0812 
1078 C       -9.9985    15.4773    22.2131 C.3   184 CCL4   0.3246 
1079 CL      -9.0594    14.2213    21.3696 Cl    184 CCL4  -0.0812 
1080 CL      -9.0980    17.0141    22.2116 Cl    184 CCL4  -0.0812 
1081 CL     -11.5648    15.6806    21.3950 Cl    184 CCL4  -0.0812 
1082 CL     -11.3360     9.7172   -14.1489 Cl    185 CCL4  -0.0812 
1083 C      -10.7974    11.3972   -14.3673 C.3   185 CCL4   0.3246 
1084 CL     -10.0482    11.9915   -12.8664 Cl    185 CCL4  -0.0812 
1085 CL     -12.1962    12.4204   -14.7642 Cl    185 CCL4  -0.0812 
1086 CL      -9.6147    11.4622   -15.6918 Cl    185 CCL4  -0.0812 
1087 CL     -11.1097    19.5518   -12.9501 Cl    186 CCL4  -0.0812 
1088 C      -10.9037    17.9354   -13.6595 C.3   186 CCL4   0.3246 
1089 CL     -12.0026    17.7818   -15.0513 Cl    186 CCL4  -0.0812 
1090 CL     -11.2926    16.6943   -12.4441 Cl    186 CCL4  -0.0812 
1091 CL      -9.2188    17.7390   -14.1880 Cl    186 CCL4  -0.0812 
1092 CL     -14.2822    12.7917   -18.4003 Cl    187 CCL4  -0.0812 
1093 C      -14.0337    11.0350   -18.2363 C.3   187 CCL4   0.3246 
1094 CL     -15.0642    10.1767   -19.4045 Cl    187 CCL4  -0.0812 
1095 CL     -14.4777    10.5298   -16.5857 Cl    187 CCL4  -0.0812 
1096 CL     -12.3201    10.6533   -18.5325 Cl    187 CCL4  -0.0812 
1097 CL     -15.9149     7.0180   -15.5154 Cl    188 CCL4  -0.0812 
1098 C      -15.3529     5.9468   -14.2067 C.3   188 CCL4   0.3246 
1099 CL     -13.8238     6.5836   -13.5534 Cl    188 CCL4  -0.0812 
1100 CL     -15.0726     4.3119   -14.8477 Cl    188 CCL4  -0.0812 
1101 CL     -16.5815     5.8924   -12.9176 Cl    188 CCL4  -0.0812 
1102 CL     -11.1678     4.4702   -16.5488 Cl    189 CCL4  -0.0812 
1103 C      -11.8224     5.6976   -17.6621 C.3   189 CCL4   0.3246 
1104 CL     -11.5877     7.3193   -16.9768 Cl    189 CCL4  -0.0812 
1105 CL     -13.5617     5.4111   -17.8929 Cl    189 CCL4  -0.0812 
1106 CL     -10.9946     5.5827   -19.2300 Cl    189 CCL4  -0.0812 
1107 CL     -13.4372    12.9861   -10.7601 Cl    190 CCL4  -0.0812 
1108 C      -13.9871    13.7071    -9.2337 C.3   190 CCL4   0.3246 
1109 CL     -14.9048    12.4967    -8.3088 Cl    190 CCL4  -0.0812 
1110 CL     -15.0367    15.0990    -9.5847 Cl    190 CCL4  -0.0812 
1111 CL     -12.5816    14.2439    -8.2994 Cl    190 CCL4  -0.0812 
1112 CL     -18.4239    18.7365   -11.5149 Cl    191 CCL4  -0.0812 
1113 C      -17.8473    18.3367   -13.1513 C.3   191 CCL4   0.3246 
1114 CL     -17.1417    16.7042   -13.1410 Cl    191 CCL4  -0.0812 
1115 CL     -16.6098    19.5134   -13.6490 Cl    191 CCL4  -0.0812 
1116 CL     -19.2126    18.3907   -14.2877 Cl    191 CCL4  -0.0812 
1117 CL     -12.7523     9.6953    -7.4090 Cl    192 CCL4  -0.0812 
1118 C      -11.7815     8.9390    -8.6946 C.3   192 CCL4   0.3246 
1119 CL     -12.0646     9.8006   -10.2228 Cl    192 CCL4  -0.0812 
1120 CL     -12.2198     7.2246    -8.8723 Cl    192 CCL4  -0.0812 
1121 CL     -10.0650     9.0609    -8.2675 Cl    192 CCL4  -0.0812 
1122 CL     -11.2670     3.3223    -3.3341 Cl    193 CCL4  -0.0812 
1123 C      -10.0942     3.9450    -4.5112 C.3   193 CCL4   0.3246 
1124 CL     -10.9752     4.6996    -5.8577 Cl    193 CCL4  -0.0812 
1125 CL      -9.1013     2.5940    -5.1012 Cl    193 CCL4  -0.0812 
1126 CL      -9.0762     5.1650    -3.7189 Cl    193 CCL4  -0.0812 
1127 CL      14.9309     9.6118    -3.5003 Cl    194 CCL4  -0.0812 
1128 C       14.9022    10.8152    -2.1899 C.3   194 CCL4   0.3246 
1129 CL      13.9778    12.2464    -2.7042 Cl    194 CCL4  -0.0812 
1130 CL      14.1347    10.1251    -0.7398 Cl    194 CCL4  -0.0812 
1131 CL      16.5723    11.3013    -1.8053 Cl    194 CCL4  -0.0812 
1132 CL     -11.4522    19.1466     1.7447 Cl    195 CCL4  -0.0812 
1133 C      -10.3579    18.2142     0.7027 C.3   195 CCL4   0.3246 
1134 CL      -9.3937    19.3080    -0.3165 Cl    195 CCL4  -0.0812 
1135 CL     -11.3292    17.1435    -0.3365 Cl    195 CCL4  -0.0812 
1136 CL      -9.2679    17.2511     1.7326 Cl    195 CCL4  -0.0812 
1137 CL     -11.6375    10.9929    -0.6376 Cl    196 CCL4  -0.0812 
1138 C      -12.5030    12.0217    -1.8066 C.3   196 CCL4   0.3246 
1139 CL     -13.8456    11.1029    -2.5248 Cl    196 CCL4  -0.0812 
1140 CL     -11.3760    12.5358    -3.0860 Cl    196 CCL4  -0.0812 
1141 CL     -13.1573    13.4498    -0.9745 Cl    196 CCL4  -0.0812 
1142 CL     -16.2516     6.9716    -3.7002 Cl    197 CCL4  -0.0812 
1143 C      -14.8833     6.3111    -4.6213 C.3   197 CCL4   0.3246 
1144 CL     -15.1328     4.5744    -4.9150 Cl    197 CCL4  -0.0812 
1145 CL     -13.3814     6.5656    -3.6954 Cl    197 CCL4  -0.0812 
1146 CL     -14.7775     7.1859    -6.1601 Cl    197 CCL4  -0.0812 
1147 CL     -16.5940    19.7465    20.1466 Cl    198 CCL4  -0.0812 
1148 C      -17.5061    21.1701    20.7007 C.3   198 CCL4   0.3246 
1149 CL     -17.3031    21.3687    22.4562 Cl    198 CCL4  -0.0812 
1150 CL     -19.2331    20.9683    20.3161 Cl    198 CCL4  -0.0812 
1151 CL     -16.8750    22.6056    19.8789 Cl    198 CCL4  -0.0812 
1152 CL     -17.8947    14.5571     6.9539 Cl    199 CCL4  -0.0812 
1153 C      -18.2630    14.9040     8.6584 C.3   199 CCL4   0.3246 
1154 CL     -18.8830    13.4383     9.4518 Cl    199 CCL4  -0.0812 
1155 CL     -19.4916    16.1828     8.7556 Cl    199 CCL4  -0.0812 
1156 CL     -16.7755    15.4271     9.4809 Cl    199 CCL4  -0.0812 
1157 CL     -21.8593     5.8522    11.7670 Cl    200 CCL4  -0.0812 
1158 C      -22.8441     6.6748    10.5326 C.3   200 CCL4   0.3246 
1159 CL     -24.2540     5.6656    10.1312 Cl    200 CCL4  -0.0812 
1160 CL     -21.8678     6.9321     9.0716 Cl    200 CCL4  -0.0812 
1161 CL     -23.3824     8.2494    11.1594 Cl    200 CCL4  -0.0812 
1162 CL     -25.6142    17.1187    11.7228 Cl    201 CCL4  -0.0812 
1163 C      -26.9113    15.9430    12.0502 C.3   201 CCL4   0.3246 
1164 CL     -27.9699    16.5642    13.3375 Cl    201 CCL4  -0.0812 
1165 CL     -26.1960    14.3861    12.5437 Cl    201 CCL4  -0.0812 
1166 CL     -27.8970    15.7063    10.5914 Cl    201 CCL4  -0.0812 
1167 CL     -22.4049    14.9042    12.2429 Cl    202 CCL4  -0.0812 
1168 C      -22.1540    13.2378    12.8081 C.3   202 CCL4   0.3246 
1169 CL     -20.4280    12.8067    12.7354 Cl    202 CCL4  -0.0812 
1170 CL     -23.0949    12.1342    11.7752 Cl    202 CCL4  -0.0812 
1171 CL     -22.7307    13.0936    14.4873 Cl    202 CCL4  -0.0812 
1172 CL     -28.4739     4.9317    10.7172 Cl    203 CCL4  -0.0812 
1173 C      -29.1396     5.2905     9.1100 C.3   203 CCL4   0.3246 
1174 CL     -29.4217     3.7695     8.2303 Cl    203 CCL4  -0.0812 
1175 CL     -27.9835     6.2886     8.1989 Cl    203 CCL4  -0.0812 
1176 CL     -30.6750     6.1744     9.3066 Cl    203 CCL4  -0.0812 
1177 CL     -23.7689     6.3828    16.5177 Cl    204 CCL4  -0.0812 
1178 C      -22.6093     5.0408    16.6442 C.3   204 CCL4   0.3246 
1179 CL     -21.1341     5.4577    15.7412 Cl    204 CCL4  -0.0812 
1180 CL     -23.3427     3.5747    15.9423 Cl    204 CCL4  -0.0812 
1181 CL     -22.2077     4.7725    18.3544 Cl    204 CCL4  -0.0812 
1182 CL     -25.4457     6.5755    13.4181 Cl    205 CCL4  -0.0812 
1183 C      -26.7035     7.8349    13.4037 C.3   205 CCL4   0.3246 
1184 CL     -26.0039     9.3949    13.9089 Cl    205 CCL4  -0.0812 
1185 CL     -28.0088     7.3644    14.5131 Cl    205 CCL4  -0.0812 
1186 CL     -27.3679     7.9933    11.7631 Cl    205 CCL4  -0.0812 
1187 CL     -16.6563    13.5293     3.3976 Cl    206 CCL4  -0.0812 
1188 C      -15.9990    11.8863     3.2981 C.3   206 CCL4   0.3246 
1189 CL     -15.9397    11.3478     1.6049 Cl    206 CCL4  -0.0812 
1190 CL     -17.0302    10.7934     4.2483 Cl    206 CCL4  -0.0812 
1191 CL     -14.3544    11.8739     3.9797 Cl    206 CCL4  -0.0812 
1192 CL     -20.2247    11.7611     6.4123 Cl    207 CCL4  -0.0812 
1193 C      -20.3716    10.2549     7.3463 C.3   207 CCL4   0.3246 
1194 CL     -21.2846    10.5716     8.8416 Cl    207 CCL4  -0.0812 
1195 CL     -18.7476     9.6358     7.7498 Cl    207 CCL4  -0.0812 
1196 CL     -21.2624     9.0619     6.3671 Cl    207 CCL4  -0.0812 
1197 CL     -26.9050    10.5910     2.6016 Cl    208 CCL4  -0.0812 
1198 C      -26.4191    10.2921     4.2837 C.3   208 CCL4   0.3246 
1199 CL     -27.7896    10.6863     5.3322 Cl    208 CCL4  -0.0812 
1200 CL     -25.0218    11.3167     4.6902 Cl    208 CCL4  -0.0812 
1201 CL     -26.0059     8.5828     4.5298 Cl    208 CCL4  -0.0812 
1202 CL     -23.0740    17.0882     8.2421 Cl    209 CCL4  -0.0812 
1203 C      -23.5401    15.4080     7.8903 C.3   209 CCL4   0.3246 
1204 CL     -25.1363    15.0908     8.5964 Cl    209 CCL4  -0.0812 
1205 CL     -22.3674    14.2796     8.6057 Cl    209 CCL4  -0.0812 
1206 CL     -23.5934    15.1414     6.1342 Cl    209 CCL4  -0.0812 
1207 CL      15.2791    13.3929     5.0481 Cl    210 CCL4  -0.0812 
1208 C       16.3686    14.3941     6.0388 C.3   210 CCL4   0.3246 
1209 CL      16.2875    13.8556     7.7289 Cl    210 CCL4  -0.0812 
1210 CL      15.8542    16.0941     5.9477 Cl    210 CCL4  -0.0812 
1211 CL      18.0298    14.2538     5.4189 Cl    210 CCL4  -0.0812 
1212 CL     -25.9543     9.1988     8.8089 Cl    211 CCL4  -0.0812 
1213 C      -26.8923    10.6949     9.0299 C.3   211 CCL4   0.3246 
1214 CL     -26.1809    11.9461     7.9904 Cl    211 CCL4  -0.0812 
1215 CL     -26.8007    11.2471    10.7185 Cl    211 CCL4  -0.0812 
1216 CL     -28.5995    10.4126     8.5961 Cl    211 CCL4  -0.0812 
1217 CL      -6.2197    14.5175    12.7603 Cl    212 CCL4  -0.0812 
1218 C       -6.3982    12.7974    12.3397 C.3   212 CCL4   0.3246 
1219 CL      -7.5206    12.0220    13.4861 Cl    212 CCL4  -0.0812 
1220 CL      -4.8035    12.0101    12.4108 Cl    212 CCL4  -0.0812 
1221 CL      -7.0463    12.6635    10.6857 Cl    212 CCL4  -0.0812 
1222 CL      -5.8470     6.8758    15.4623 Cl    213 CCL4  -0.0812 
1223 C       -6.8494     8.0553    14.5801 C.3   213 CCL4   0.3246 
1224 CL      -5.8684     8.8824    13.3563 Cl    213 CCL4  -0.0812 
1225 CL      -7.5034     9.2511    15.7243 Cl    213 CCL4  -0.0812 
1226 CL      -8.2007     7.2470    13.7690 Cl    213 CCL4  -0.0812 
1227 CL     -28.6119     8.2293    19.8130 Cl    214 CCL4  -0.0812 
1228 C      -26.9968     8.1482    19.0754 C.3   214 CCL4   0.3246 
1229 CL     -27.0160     8.9419    17.4847 Cl    214 CCL4  -0.0812 
1230 CL     -26.5118     6.4431    18.8868 Cl    214 CCL4  -0.0812 
1231 CL     -25.8333     8.9856    20.1337 Cl    214 CCL4  -0.0812 
1232 CL     -20.9399    13.1044    18.0526 Cl    215 CCL4  -0.0812 
1233 C      -19.5174    14.1733    18.1347 C.3   215 CCL4   0.3246 
1234 CL     -19.1030    14.7454    16.4989 Cl    215 CCL4  -0.0812 
1235 CL     -18.1344    13.2893    18.8273 Cl    215 CCL4  -0.0812 
1236 CL     -19.9114    15.5656    19.1675 Cl    215 CCL4  -0.0812 
1237 CL     -22.7768    16.4422    15.7287 Cl    216 CCL4  -0.0812 
1238 C      -24.2632    16.5099    16.7052 C.3   216 CCL4   0.3246 
1239 CL     -24.5612    18.1953    17.1997 Cl    216 CCL4  -0.0812 
1240 CL     -24.0568    15.4874    18.1426 Cl    216 CCL4  -0.0812 
1241 CL     -25.6408    15.9070    15.7611 Cl    216 CCL4  -0.0812 
1242 CL     -17.8299     7.1676    15.0294 Cl    217 CCL4  -0.0812 
1243 C      -18.2058     8.2444    16.3974 C.3   217 CCL4   0.3246 
1244 CL     -19.4370     9.4263    15.8936 Cl    217 CCL4  -0.0812 
1245 CL     -16.7220     9.0962    16.8837 Cl    217 CCL4  -0.0812 
1246 CL     -18.8149     7.2817    17.7659 Cl    217 CCL4  -0.0812 
1247 CL     -27.4027    12.2480    16.1409 Cl    218 CCL4  -0.0812 
1248 C      -29.1274    12.0728    15.7453 C.3   218 CCL4   0.3246 
1249 CL     -29.5618    13.2190    14.4556 Cl    218 CCL4  -0.0812 
1250 CL     -30.1017    12.3880    17.1960 Cl    218 CCL4  -0.0812 
1251 CL     -29.4625    10.4194    15.1868 Cl    218 CCL4  -0.0812 
1252 CL     -10.9704     5.1004    14.1988 Cl    219 CCL4  -0.0812 
1253 C      -10.1000     4.0022    15.2973 C.3   219 CCL4   0.3246 
1254 CL     -11.1752     3.4737    16.6113 Cl    219 CCL4  -0.0812 
1255 CL      -8.6756     4.7884    16.0070 Cl    219 CCL4  -0.0812 
1256 CL      -9.5489     2.5825    14.3865 Cl    219 CCL4  -0.0812 
1257 CL     -23.6865    18.2515     4.3089 Cl    220 CCL4  -0.0812 
1258 C      -24.6780    19.4292     3.4174 C.3   220 CCL4   0.3246 
1259 CL     -24.1879    21.0710     3.8894 Cl    220 CCL4  -0.0812 
1260 CL     -26.3910    19.1523     3.8145 Cl    220 CCL4  -0.0812 
1261 CL     -24.4079    19.2126     1.6736 Cl    220 CCL4  -0.0812 
1262 CL     -26.5722    18.5561     8.1908 Cl    221 CCL4  -0.0812 
1263 C      -26.2148    20.2300     8.6828 C.3   221 CCL4   0.3246 
1264 CL     -27.0186    21.3476     7.5568 Cl    221 CCL4  -0.0812 
1265 CL     -24.4565    20.4892     8.6183 Cl    221 CCL4  -0.0812 
1266 CL     -26.8010    20.5093    10.3397 Cl    221 CCL4  -0.0812 
1267 CL      -8.7620    18.0818    15.6506 Cl    222 CCL4  -0.0812 
1268 C       -9.5470    16.9959    16.8208 C.3   222 CCL4   0.3246 
1269 CL      -9.1766    17.4890    18.4875 Cl    222 CCL4  -0.0812 
1270 CL      -8.9932    15.3245    16.5481 Cl    222 CCL4  -0.0812 
1271 CL     -11.3084    17.0642    16.5858 Cl    222 CCL4  -0.0812 
1272 CL     -17.9611    16.7850     3.1649 Cl    223 CCL4  -0.0812 
1273 C      -19.6592    16.2730     3.2950 C.3   223 CCL4   0.3246 
1274 CL     -19.8653    14.6418     2.6265 Cl    223 CCL4  -0.0812 
1275 CL     -20.6791    17.4131     2.3872 Cl    223 CCL4  -0.0812 
1276 CL     -20.1727    16.2650     4.9983 Cl    223 CCL4  -0.0812 
1277 CL     -30.2200    17.8309    18.6255 Cl    224 CCL4  -0.0812 
1278 C      -28.8040    17.2123    17.7424 C.3   224 CCL4   0.3246 
1279 CL     -29.2813    15.7910    16.7862 Cl    224 CCL4  -0.0812 
1280 CL     -27.5272    16.7540    18.8965 Cl    224 CCL4  -0.0812 
1281 CL     -28.1925    18.4778    16.6512 Cl    224 CCL4  -0.0812 
1282 CL     -12.3949    17.6782     7.6330 Cl    225 CCL4  -0.0812 
1283 C      -12.3300    19.3016     8.3537 C.3   225 CCL4   0.3246 
1284 CL     -12.7354    20.5238     7.1258 Cl    225 CCL4  -0.0812 
1285 CL     -10.6963    19.6090     8.9838 Cl    225 CCL4  -0.0812 
1286 CL     -13.5144    19.4119     9.6811 Cl    225 CCL4  -0.0812 
1287 CL     -16.0223    12.4000    11.1733 Cl    226 CCL4  -0.0812 
1288 C      -15.9574    11.3871    12.6292 C.3   226 CCL4   0.3246 
1289 CL     -16.7105    12.2528    13.9942 Cl    226 CCL4  -0.0812 
1290 CL     -14.2625    11.0010    13.0159 Cl    226 CCL4  -0.0812 
1291 CL     -16.8478     9.8757    12.3319 Cl    226 CCL4  -0.0812 
1292 CL     -10.7018    13.9627     5.9722 Cl    227 CCL4  -0.0812 
1293 C       -9.2669    14.7609     6.6524 C.3   227 CCL4   0.3246 
1294 CL      -7.9963    13.5424     6.9095 Cl    227 CCL4  -0.0812 
1295 CL      -9.6828    15.5238     8.2046 Cl    227 CCL4  -0.0812 
1296 CL      -8.6641    16.0015     5.5301 Cl    227 CCL4  -0.0812 
1297 CL     -11.2834     8.2081     9.4553 Cl    228 CCL4  -0.0812 
1298 C      -10.6207     9.3363    10.6626 C.3   228 CCL4   0.3246 
1299 CL     -11.0186     8.7633    12.2950 Cl    228 CCL4  -0.0812 
1300 CL     -11.3204    10.9467    10.4132 Cl    228 CCL4  -0.0812 
1301 CL      -8.8523     9.4304    10.4689 Cl    228 CCL4  -0.0812 
1302 CL     -11.9565    16.5710    11.0267 Cl    229 CCL4  -0.0812 
1303 C      -12.0939    14.8048    11.1668 C.3   229 CCL4   0.3246 
1304 CL     -12.5449    14.1067     9.5898 Cl    229 CCL4  -0.0812 
1305 CL     -13.3631    14.4055    12.3426 Cl    229 CCL4  -0.0812 
1306 CL     -10.5289    14.1447    11.7106 Cl    229 CCL4  -0.0812 
1307 CL     -11.9549     7.4761     5.7182 Cl    230 CCL4  -0.0812 
1308 C      -11.9097     6.7860     4.0789 C.3   230 CCL4   0.3246 
1309 CL     -13.0308     5.4143     3.9692 Cl    230 CCL4  -0.0812 
1310 CL     -10.2574     6.2524     3.6871 Cl    230 CCL4  -0.0812 
1311 CL     -12.4173     8.0250     2.9126 Cl    230 CCL4  -0.0812 
1312 CL     -15.5560    11.7275     7.5127 Cl    231 CCL4  -0.0812 
1313 C      -14.5035    10.2975     7.6485 C.3   231 CCL4   0.3246 
1314 CL     -15.1711     8.9756     6.6719 Cl    231 CCL4  -0.0812 
1315 CL     -14.4349     9.7815     9.3483 Cl    231 CCL4  -0.0812 
1316 CL     -12.8671    10.6987     7.0731 Cl    231 CCL4  -0.0812 
1317 CL     -16.9206     6.7812    10.3191 Cl    232 CCL4  -0.0812 
1318 C      -15.4098     5.8854    10.6052 C.3   232 CCL4   0.3246 
1319 CL     -14.6505     6.4510    12.1060 Cl    232 CCL4  -0.0812 
1320 CL     -14.3064     6.1631     9.2375 Cl    232 CCL4  -0.0812 
1321 CL     -15.7562     4.1436    10.7164 Cl    232 CCL4  -0.0812 
1322 CL     -11.8914    16.7756     4.2967 Cl    233 CCL4  -0.0812 
1323 C      -13.5512    16.1567     4.1506 C.3   233 CCL4   0.3246 
1324 CL     -13.9761    15.1685     5.5721 Cl    233 CCL4  -0.0812 
1325 CL     -13.6644    15.1698     2.6728 Cl    233 CCL4  -0.0812 
1326 CL     -14.6672    17.5349     4.0241 Cl    233 CCL4  -0.0812 
1327 CL     -11.7015    12.8743    15.0919 Cl    234 CCL4  -0.0812 
1328 C      -12.9627    13.2303    16.3010 C.3   234 CCL4   0.3246 
1329 CL     -14.0316    11.8172    16.4638 Cl    234 CCL4  -0.0812 
1330 CL     -13.9261    14.6302    15.7751 Cl    234 CCL4  -0.0812 
1331 CL     -12.1985    13.5968    17.8675 Cl    234 CCL4  -0.0812 
1332 CL     -18.5210    18.1945    14.1757 Cl    235 CCL4  -0.0812 
1333 C      -17.9201    17.2554    12.7877 C.3   235 CCL4   0.3246 
1334 CL     -16.6482    16.1383    13.3311 Cl    235 CCL4  -0.0812 
1335 CL     -17.2710    18.3598    11.5493 Cl    235 CCL4  -0.0812 
1336 CL     -19.2567    16.3123    12.1111 Cl    235 CCL4  -0.0812 
1337 CL     -12.5288     9.1835    18.1127 Cl    236 CCL4  -0.0812 
1338 C      -12.3298     7.6015    17.3308 C.3   236 CCL4   0.3246 
1339 CL     -12.7378     7.7570    15.6071 Cl    236 CCL4  -0.0812 
1340 CL     -13.4103     6.4200    18.1010 Cl    236 CCL4  -0.0812 
1341 CL     -10.6361     7.0957    17.5090 Cl    236 CCL4  -0.0812 
1342 CL     -17.6654    18.2506     6.7550 Cl    237 CCL4  -0.0812 
1343 C      -18.6323    19.7402     6.6312 C.3   237 CCL4   0.3246 
1344 CL     -17.7648    21.0489     7.4750 Cl    237 CCL4  -0.0812 
1345 CL     -20.2271    19.5021     7.3868 Cl    237 CCL4  -0.0812 
1346 CL     -18.8428    20.1345     4.9082 Cl    237 CCL4  -0.0812 
1347 CL      -5.1881    -7.8258   -14.8787 Cl    238 CCL4  -0.0812 
1348 C       -5.3036    -6.2284   -14.1152 C.3   238 CCL4   0.3246 
1349 CL      -6.7313    -5.3734   -14.7471 Cl    238 CCL4  -0.0812 
1350 CL      -3.8436    -5.2920   -14.5017 Cl    238 CCL4  -0.0812 
1351 CL      -5.4400    -6.4023   -12.3487 Cl    238 CCL4  -0.0812 
1352 CL       8.0557   -10.6886   -17.9176 Cl    239 CCL4  -0.0812 
1353 C        7.9422   -10.0643   -16.2525 C.3   239 CCL4   0.3246 
1354 CL       7.2701   -11.3244   -15.1852 Cl    239 CCL4  -0.0812 
1355 CL       6.8614    -8.6510   -16.2205 Cl    239 CCL4  -0.0812 
1356 CL       9.5627    -9.5881   -15.6939 Cl    239 CCL4  -0.0812 
1357 CL       3.4797    18.4922   -13.3502 Cl    240 CCL4  -0.0812 
1358 C        4.3857    19.7143   -14.2752 C.3   240 CCL4   0.3246 
1359 CL       3.3827    20.2890   -15.6247 Cl    240 CCL4  -0.0812 
1360 CL       5.8802    18.9891   -14.9156 Cl    240 CCL4  -0.0812 
1361 CL       4.7994    21.0902   -13.2199 Cl    240 CCL4  -0.0812 
1362 CL      -1.6201    -8.0658   -12.7138 Cl    241 CCL4  -0.0812 
1363 C       -1.0801    -9.6995   -13.1730 C.3   241 CCL4   0.3246 
1364 CL      -0.5960   -10.5919   -11.7180 Cl    241 CCL4  -0.0812 
1365 CL       0.2873    -9.5761   -14.3006 Cl    241 CCL4  -0.0812 
1366 CL      -2.4291   -10.5615   -13.9526 Cl    241 CCL4  -0.0812 
1367 CL       5.7470   -15.9631     1.5410 Cl    242 CCL4  -0.0812 
1368 C        3.9773   -15.7932     1.4976 C.3   242 CCL4   0.3246 
1369 CL       3.4742   -15.1469    -0.0782 Cl    242 CCL4  -0.0812 
1370 CL       3.4744   -14.6830     2.7926 Cl    242 CCL4  -0.0812 
1371 CL       3.2104   -17.3795     1.7539 Cl    242 CCL4  -0.0812 
1372 CL       0.6802     0.7320   -12.6971 Cl    243 CCL4  -0.0812 
1373 C        0.3544     1.8828   -14.0168 C.3   243 CCL4   0.3246 
1374 CL      -1.0899     2.8267   -13.6131 Cl    243 CCL4  -0.0812 
1375 CL       0.0209     0.9844   -15.5190 Cl    243 CCL4  -0.0812 
1376 CL       1.7418     2.9799   -14.2592 Cl    243 CCL4  -0.0812 
1377 CL       4.7184   -12.1306   -12.3784 Cl    244 CCL4  -0.0812 
1378 C        3.6947   -13.5263   -12.7782 C.3   244 CCL4   0.3246 
1379 CL       4.3831   -14.9881   -12.0303 Cl    244 CCL4  -0.0812 
1380 CL       3.6296   -13.7167   -14.5463 Cl    244 CCL4  -0.0812 
1381 CL       2.0612   -13.2324   -12.1370 Cl    244 CCL4  -0.0812 
1382 CL       0.4895    21.1022   -11.8074 Cl    245 CCL4  -0.0812 
1383 C       -0.9547    21.2738   -10.7821 C.3   245 CCL4   0.3246 
1384 CL      -0.7033    22.5986    -9.6156 Cl    245 CCL4  -0.0812 
1385 CL      -1.2435    19.7428    -9.9282 Cl    245 CCL4  -0.0812 
1386 CL      -2.3787    21.6474   -11.7764 Cl    245 CCL4  -0.0812 
1387 CL       7.8190     3.6798   -17.1260 Cl    246 CCL4  -0.0812 
1388 C        6.2448     3.0414   -16.5959 C.3   246 CCL4   0.3246 
1389 CL       6.1963     1.2768   -16.8238 Cl    246 CCL4  -0.0812 
1390 CL       4.9524     3.8211   -17.5283 Cl    246 CCL4  -0.0812 
1391 CL       6.0158     3.4100   -14.8750 Cl    246 CCL4  -0.0812 
1392 CL       0.3607     1.4423    20.5203 Cl    247 CCL4  -0.0812 
1393 C        1.9126     2.1284    21.0448 C.3   247 CCL4   0.3246 
1394 CL       1.6163     3.7155    21.7977 Cl    247 CCL4  -0.0812 
1395 CL       2.9820     2.2933    19.6330 Cl    247 CCL4  -0.0812 
1396 CL       2.6681     1.0235    22.2135 Cl    247 CCL4  -0.0812 
1397 CL       1.6491   -10.8350     2.4777 Cl    248 CCL4  -0.0812 
1398 C        1.2315   -10.5302     0.7743 C.3   248 CCL4   0.3246 
1399 CL       2.3256    -9.3140     0.0794 Cl    248 CCL4  -0.0812 
1400 CL      -0.4429    -9.9511     0.6720 Cl    248 CCL4  -0.0812 
1401 CL       1.3975   -12.0410    -0.1498 Cl    248 CCL4  -0.0812 
1402 CL      -6.0300    -9.3421     2.9631 Cl    249 CCL4  -0.0812 
1403 C       -5.6937    -9.4401     1.2183 C.3   249 CCL4   0.3246 
1404 CL      -3.9387    -9.4793     0.9687 Cl    249 CCL4  -0.0812 
1405 CL      -6.3345    -8.0239     0.3556 Cl    249 CCL4  -0.0812 
1406 CL      -6.3925   -10.9363     0.5666 Cl    249 CCL4  -0.0812 
1407 CL       5.8133   -13.9213    22.4423 Cl    250 CCL4  -0.0812 
1408 C        5.8509   -15.6696    22.1018 C.3   250 CCL4   0.3246 
1409 CL       5.5415   -16.5754    23.6036 Cl    250 CCL4  -0.0812 
1410 CL       7.4536   -16.1165    21.4701 Cl    250 CCL4  -0.0812 
1411 CL       4.6158   -16.0930    20.8904 Cl    250 CCL4  -0.0812 
1412 CL       0.9110   -10.9773    20.7923 Cl    251 CCL4  -0.0812 
1413 C        1.8831   -11.8119    22.0290 C.3   251 CCL4   0.3246 
1414 CL       0.8679   -12.1397    23.4493 Cl    251 CCL4  -0.0812 
1415 CL       3.2676   -10.7980    22.5066 Cl    251 CCL4  -0.0812 
1416 CL       2.4713   -13.3549    21.3673 Cl    251 CCL4  -0.0812 
1417 CL       0.5041   -15.6495   -16.5767 Cl    252 CCL4  -0.0812 
1418 C        0.1859   -16.0926   -14.8831 C.3   252 CCL4   0.3246 
1419 CL      -0.5457   -14.7169   -14.0254 Cl    252 CCL4  -0.0812 
1420 CL       1.7120   -16.5499   -14.0918 Cl    252 CCL4  -0.0812 
1421 CL      -0.9354   -17.4716   -14.8549 Cl    252 CCL4  -0.0812 
1422 CL      -3.9469     4.0265   -12.1380 Cl    253 CCL4  -0.0812 
1423 C       -4.7588     2.4707   -12.4328 C.3   253 CCL4   0.3246 
1424 CL      -5.0024     2.2039   -14.1731 Cl    253 CCL4  -0.0812 
1425 CL      -6.3372     2.4733   -11.6268 Cl    253 CCL4  -0.0812 
1426 CL      -3.7768     1.1498   -11.7623 Cl    253 CCL4  -0.0812 
1427 CL      -0.2463    22.6281    -6.1651 Cl    254 CCL4  -0.0812 
1428 C       -0.2148    20.8460    -6.1434 C.3   254 CCL4   0.3246 
1429 CL      -1.8354    20.2020    -6.4961 Cl    254 CCL4  -0.0812 
1430 CL       0.3027    20.2927    -4.5394 Cl    254 CCL4  -0.0812 
1431 CL       0.9549    20.2519    -7.3499 Cl    254 CCL4  -0.0812 
1432 CL       5.5258   -11.5544    -2.2671 Cl    255 CCL4  -0.0812 
1433 C        6.3727   -11.9732    -0.7618 C.3   255 CCL4   0.3246 
1434 CL       5.1999   -11.9910     0.5790 Cl    255 CCL4  -0.0812 
1435 CL       7.6489   -10.7740    -0.4362 Cl    255 CCL4  -0.0812 
1436 CL       7.1170   -13.5772    -0.9431 Cl    255 CCL4  -0.0812 
1437 CL       5.4072   -13.4914    -8.6913 Cl    256 CCL4  -0.0812 
1438 C        6.1148   -12.5624    -7.3424 C.3   256 CCL4   0.3246 
1439 CL       6.9903   -11.1570    -7.9951 Cl    256 CCL4  -0.0812 
1440 CL       7.2343   -13.5956    -6.4271 Cl    256 CCL4  -0.0812 
1441 CL       4.8088   -12.0130    -6.2660 Cl    256 CCL4  -0.0812 
1442 CL       3.6300   -10.0885    -9.1375 Cl    257 CCL4  -0.0812 
1443 C        2.0548    -9.3700    -8.7330 C.3   257 CCL4   0.3246 
1444 CL       2.2091    -8.4036    -7.2429 Cl    257 CCL4  -0.0812 
1445 CL       0.8547   -10.6623    -8.4963 Cl    257 CCL4  -0.0812 
1446 CL       1.5437    -8.3230   -10.0835 Cl    257 CCL4  -0.0812 
1447 CL       9.9447    23.3730    -9.2553 Cl    258 CCL4  -0.0812 
1448 C        8.4634    22.5670    -8.6870 C.3   258 CCL4   0.3246 
1449 CL       7.0634    23.1889    -9.5981 Cl    258 CCL4  -0.0812 
1450 CL       8.2432    22.8972    -6.9559 Cl    258 CCL4  -0.0812 
1451 CL       8.6092    20.8091    -8.9298 Cl    258 CCL4  -0.0812 
1452 CL       6.6900    23.8825    -3.5530 Cl    259 CCL4  -0.0812 
1453 C        5.6485    22.5111    -4.0000 C.3   259 CCL4   0.3246 
1454 CL       4.9186    22.8051    -5.6006 Cl    259 CCL4  -0.0812 
1455 CL       4.3673    22.3181    -2.7767 Cl    259 CCL4  -0.0812 
1456 CL       6.6219    21.0190    -4.0607 Cl    259 CCL4  -0.0812 
1457 CL      11.0882    -9.0584    -5.8771 Cl    260 CCL4  -0.0812 
1458 C       11.7492    -9.6067    -4.3211 C.3   260 CCL4   0.3246 
1459 CL      11.7368   -11.3855    -4.2532 Cl    260 CCL4  -0.0812 
1460 CL      10.7434    -8.9697    -2.9996 Cl    260 CCL4  -0.0812 
1461 CL      13.4206    -9.0236    -4.1332 Cl    260 CCL4  -0.0812 
1462 CL      -0.1442   -12.9225    -3.3125 Cl    261 CCL4  -0.0812 
1463 C        1.4569   -12.5666    -4.0016 C.3   261 CCL4   0.3246 
1464 CL       1.3907   -12.8216    -5.7594 Cl    261 CCL4  -0.0812 
1465 CL       2.6671   -13.6633    -3.2942 Cl    261 CCL4  -0.0812 
1466 CL       1.8970   -10.8764    -3.6537 Cl    261 CCL4  -0.0812 
1467 CL      -2.3230   -13.6399   -11.0258 Cl    262 CCL4  -0.0812 
1468 C       -3.1134   -13.9658    -9.4696 C.3   262 CCL4   0.3246 
1469 CL      -4.3694   -12.7437    -9.1704 Cl    262 CCL4  -0.0812 
1470 CL      -1.9119   -13.9316    -8.1588 Cl    262 CCL4  -0.0812 
1471 CL      -3.8904   -15.5637    -9.5285 Cl    262 CCL4  -0.0812 
1472 CL       0.1896    22.0723    -0.7682 Cl    263 CCL4  -0.0812 
1473 C       -1.5077    22.5334    -1.0523 C.3   263 CCL4   0.3246 
1474 CL      -2.5040    22.0282     0.3339 Cl    263 CCL4  -0.0812 
1475 CL      -2.1056    21.7312    -2.5250 Cl    263 CCL4  -0.0812 
1476 CL      -1.6357    24.2987    -1.2507 Cl    263 CCL4  -0.0812 
1477 CL       4.4473    -5.7629   -15.4995 Cl    264 CCL4  -0.0812 
1478 C        4.0013    -6.7976   -14.1196 C.3   264 CCL4   0.3246 
1479 CL       3.4925    -8.3897   -14.7168 Cl    264 CCL4  -0.0812 
1480 CL       2.6579    -6.0534   -13.2213 Cl    264 CCL4  -0.0812 
1481 CL       5.3954    -7.0229   -13.0367 Cl    264 CCL4  -0.0812 
1482 CL       3.4865    -1.3396    -7.1895 Cl    265 CCL4  -0.0812 
1483 C        3.2121    -1.4899    -8.9386 C.3   265 CCL4   0.3246 
1484 CL       2.0644    -2.8142    -9.2249 Cl    265 CCL4  -0.0812 
1485 CL       4.7590    -1.8124    -9.7481 Cl    265 CCL4  -0.0812 
1486 CL       2.5343     0.0271    -9.5708 Cl    265 CCL4  -0.0812 
1487 CL      -1.0110    -2.7534   -13.0751 Cl    266 CCL4  -0.0812 
1488 C       -1.4450    -3.1299   -11.3900 C.3   266 CCL4   0.3246 
1489 CL      -0.5437    -4.5687   -10.8581 Cl    266 CCL4  -0.0812 
1490 CL      -3.1873    -3.4722   -11.2912 Cl    266 CCL4  -0.0812 
1491 CL      -1.0550    -1.7352   -10.3527 Cl    266 CCL4  -0.0812 
1492 CL       4.6541    -2.3232   -15.7541 Cl    267 CCL4  -0.0812 
1493 C        3.2974    -1.7286   -14.7792 C.3   267 CCL4   0.3246 
1494 CL       3.2329    -2.5274   -13.1922 Cl    267 CCL4  -0.0812 
1495 CL       1.7857    -2.0576   -15.6570 Cl    267 CCL4  -0.0812 
1496 CL       3.4900     0.0173   -14.5396 Cl    267 CCL4  -0.0812 
1497 CL      -1.6234     3.5171    -6.2704 Cl    268 CCL4  -0.0812 
1498 C       -1.3893     2.1183    -7.3491 C.3   268 CCL4   0.3246 
1499 CL      -2.5929     0.8610    -6.9583 Cl    268 CCL4  -0.0812 
1500 CL       0.2522     1.4598    -7.1433 Cl    268 CCL4  -0.0812 
1501 CL      -1.6066     2.6333    -9.0421 Cl    268 CCL4  -0.0812 
1502 CL      -2.0915    -8.0349   -16.5181 Cl    269 CCL4  -0.0812 
1503 C       -0.8528    -6.8369   -16.9611 C.3   269 CCL4   0.3246 
1504 CL      -1.5357    -5.6656   -18.1137 Cl    269 CCL4  -0.0812 
1505 CL       0.5388    -7.6741   -17.6897 Cl    269 CCL4  -0.0812 
1506 CL      -0.2999    -5.9841   -15.5016 Cl    269 CCL4  -0.0812 
1507 CL       7.4547    -2.2009    -3.2280 Cl    270 CCL4  -0.0812 
1508 C        5.8351    -2.3843    -2.5303 C.3   270 CCL4   0.3246 
1509 CL       5.8533    -3.6703    -1.2946 Cl    270 CCL4  -0.0812 
1510 CL       4.6887    -2.8056    -3.8217 Cl    270 CCL4  -0.0812 
1511 CL       5.3399    -0.8437    -1.7980 Cl    270 CCL4  -0.0812 
1512 CL       5.0328    -4.7190    -7.4499 Cl    271 CCL4  -0.0812 
1513 C        5.5586    -5.3426    -9.0340 C.3   271 CCL4   0.3246 
1514 CL       4.2293    -5.2280   -10.2034 Cl    271 CCL4  -0.0812 
1515 CL       5.9897    -7.0567    -8.8507 Cl    271 CCL4  -0.0812 
1516 CL       6.9663    -4.4537    -9.6538 Cl    271 CCL4  -0.0812 
1517 CL       9.6645    -2.6201    -8.4689 Cl    272 CCL4  -0.0812 
1518 C        9.0183    -3.1497    -6.8981 C.3   272 CCL4   0.3246 
1519 CL       7.3946    -2.4650    -6.6753 Cl    272 CCL4  -0.0812 
1520 CL      10.0739    -2.5640    -5.5966 Cl    272 CCL4  -0.0812 
1521 CL       8.9370    -4.9286    -6.8502 Cl    272 CCL4  -0.0812 
1522 CL      -0.2279    -7.0761    -1.5045 Cl    273 CCL4  -0.0812 
1523 C       -1.5134    -7.5350    -2.6399 C.3   273 CCL4   0.3246 
1524 CL      -2.9212    -6.4786    -2.3947 Cl    273 CCL4  -0.0812 
1525 CL      -2.0060    -9.2160    -2.3422 Cl    273 CCL4  -0.0812 
1526 CL      -0.9063    -7.4023    -4.3076 Cl    273 CCL4  -0.0812 
1527 CL      -0.3673    -1.9708    -6.1444 Cl    274 CCL4  -0.0812 
1528 C       -0.6476    -3.7070    -5.8988 C.3   274 CCL4   0.3246 
1529 CL      -1.5217    -4.3612    -7.2972 Cl    274 CCL4  -0.0812 
1530 CL      -1.5875    -3.9414    -4.4070 Cl    274 CCL4  -0.0812 
1531 CL       0.9168    -4.5389    -5.7403 Cl    274 CCL4  -0.0812 
1532 CL       6.7288     3.3200    -5.9465 Cl    275 CCL4  -0.0812 
1533 C        6.5729     1.6353    -6.5032 C.3   275 CCL4   0.3246 
1534 CL       8.1647     1.0162    -6.9945 Cl    275 CCL4  -0.0812 
1535 CL       5.4795     1.5716    -7.9060 Cl    275 CCL4  -0.0812 
1536 CL       5.9286     0.6476    -5.1712 Cl    275 CCL4  -0.0812 
1537 CL       1.7448    -4.1401    -1.8684 Cl    276 CCL4  -0.0812 
1538 C        1.7178    -3.8019    -0.1201 C.3   276 CCL4   0.3246 
1539 CL       2.1778    -5.2751     0.7679 Cl    276 CCL4  -0.0812 
1540 CL       0.0814    -3.3016     0.3730 Cl    276 CCL4  -0.0812 
1541 CL       2.8646    -2.4929     0.2497 Cl    276 CCL4  -0.0812 
1542 CL       5.6662    -7.9887    -1.5545 Cl    277 CCL4  -0.0812 
1543 C        5.5977    -7.3784    -3.2258 C.3   277 CCL4   0.3246 
1544 CL       5.5487    -8.7347    -4.3773 Cl    277 CCL4  -0.0812 
1545 CL       7.0232    -6.3677    -3.5624 Cl    277 CCL4  -0.0812 
1546 CL       4.1313    -6.3924    -3.4176 Cl    277 CCL4  -0.0812 
1547 CL      12.1155    -0.0341    -6.6870 Cl    278 CCL4  -0.0812 
1548 C       13.7698    -0.2739    -7.2904 C.3   278 CCL4   0.3246 
1549 CL      14.6961     1.2335    -7.1060 Cl    278 CCL4  -0.0812 
1550 CL      13.7240    -0.7425    -9.0077 Cl    278 CCL4  -0.0812 
1551 CL      14.5527    -1.5607    -6.3429 Cl    278 CCL4  -0.0812 
1552 CL      -4.4871    -5.4574    -5.3640 Cl    279 CCL4  -0.0812 
1553 C       -5.2537    -4.2624    -6.4283 C.3   279 CCL4   0.3246 
1554 CL      -4.5291    -2.6601    -6.1462 Cl    279 CCL4  -0.0812 
1555 CL      -6.9872    -4.1997    -6.0497 Cl    279 CCL4  -0.0812 
1556 CL      -5.0300    -4.7473    -8.1263 Cl    279 CCL4  -0.0812 
1557 CL      -4.2642    -8.4684    -6.9356 Cl    280 CCL4  -0.0812 
1558 C       -2.8342    -9.1771    -7.7184 C.3   280 CCL4   0.3246 
1559 CL      -3.2097    -9.5306    -9.4221 Cl    280 CCL4  -0.0812 
1560 CL      -2.3771   -10.6766    -6.8738 Cl    280 CCL4  -0.0812 
1561 CL      -1.4747    -8.0338    -7.6631 Cl    280 CCL4  -0.0812 
1562 CL       9.6937    -4.1871    -1.2624 Cl    281 CCL4  -0.0812 
1563 C        9.5871    -5.3107     0.1104 C.3   281 CCL4   0.3246 
1564 CL      11.1885    -5.5179     0.8475 Cl    281 CCL4  -0.0812 
1565 CL       8.9751    -6.8832    -0.4451 Cl    281 CCL4  -0.0812 
1566 CL       8.4785    -4.6293     1.3210 Cl    281 CCL4  -0.0812 
1567 CL      12.8653    -7.1239   -16.3545 Cl    282 CCL4  -0.0812 
1568 C       13.5922    -6.0973   -15.0938 C.3   282 CCL4   0.3246 
1569 CL      14.4976    -4.7747   -15.8648 Cl    282 CCL4  -0.0812 
1570 CL      14.6860    -7.0800   -14.0838 Cl    282 CCL4  -0.0812 
1571 CL      12.3010    -5.4083   -14.0840 Cl    282 CCL4  -0.0812 
1572 CL      10.4658   -12.4136   -13.2118 Cl    283 CCL4  -0.0812 
1573 C        9.6391   -13.9386   -12.7957 C.3   283 CCL4   0.3246 
1574 CL       8.7057   -13.7118   -11.2948 Cl    283 CCL4  -0.0812 
1575 CL      10.8508   -15.2234   -12.5668 Cl    283 CCL4  -0.0812 
1576 CL       8.5321   -14.4139   -14.1088 Cl    283 CCL4  -0.0812 
1577 CL       9.2430    -1.3659   -18.0445 Cl    284 CCL4  -0.0812 
1578 C       10.6015    -0.5545   -17.2340 C.3   284 CCL4   0.3246 
1579 CL      11.1860    -1.5390   -15.8685 Cl    284 CCL4  -0.0812 
1580 CL      10.0812     1.0381   -16.6393 Cl    284 CCL4  -0.0812 
1581 CL      11.9268    -0.3334   -18.4035 Cl    284 CCL4  -0.0812 
1582 CL      12.4872   -14.0775    -7.2250 Cl    285 CCL4  -0.0812 
1583 C       12.0801   -12.6084    -8.1485 C.3   285 CCL4   0.3246 
1584 CL      10.4080   -12.1192    -7.7915 Cl    285 CCL4  -0.0812 
1585 CL      12.2345   -12.9454    -9.8888 Cl    285 CCL4  -0.0812 
1586 CL      13.2057   -11.3013    -7.7127 Cl    285 CCL4  -0.0812 
1587 CL      10.3262    -9.4172   -10.1318 Cl    286 CCL4  -0.0812 
1588 C        9.6834    -8.6175   -11.5867 C.3   286 CCL4   0.3246 
1589 CL       8.3492    -9.5943   -12.2393 Cl    286 CCL4  -0.0812 
1590 CL      10.9870    -8.4740   -12.7867 Cl    286 CCL4  -0.0812 
1591 CL       9.0770    -6.9976   -11.1700 Cl    286 CCL4  -0.0812 
1592 CL      12.7209    21.7934    -7.4909 Cl    287 CCL4  -0.0812 
1593 C       14.0337    22.2741    -8.5973 C.3   287 CCL4   0.3246 
1594 CL      13.4094    23.4097    -9.8176 Cl    287 CCL4  -0.0812 
1595 CL      14.6832    20.8285    -9.4071 Cl    287 CCL4  -0.0812 
1596 CL      15.3332    23.0598    -7.6680 Cl    287 CCL4  -0.0812 
1597 CL       9.4061     3.9982    -8.2077 Cl    288 CCL4  -0.0812 
1598 C       11.0184     3.5216    -8.7543 C.3   288 CCL4   0.3246 
1599 CL      12.1370     3.6350    -7.3802 Cl    288 CCL4  -0.0812 
1600 CL      11.5253     4.6249   -10.0572 Cl    288 CCL4  -0.0812 
1601 CL      10.9565     1.8507    -9.3657 Cl    288 CCL4  -0.0812 
1602 CL       9.7414     1.0365    -4.0500 Cl    289 CCL4  -0.0812 
1603 C       10.5952     0.9620    -2.4962 C.3   289 CCL4   0.3246 
1604 CL      12.1683     0.1716    -2.7268 Cl    289 CCL4  -0.0812 
1605 CL       9.6352     0.0319    -1.3204 Cl    289 CCL4  -0.0812 
1606 CL      10.8975     2.6106    -1.9028 Cl    289 CCL4  -0.0812 
1607 CL      14.0384    -5.2375    -4.6183 Cl    290 CCL4  -0.0812 
1608 C       12.7443    -4.9385    -3.4399 C.3   290 CCL4   0.3246 
1609 CL      11.1982    -5.5194    -4.0962 Cl    290 CCL4  -0.0812 
1610 CL      12.6661    -3.1983    -3.0834 Cl    290 CCL4  -0.0812 
1611 CL      13.1253    -5.8439    -1.9579 Cl    290 CCL4  -0.0812 
1612 CL       8.7245    -1.5500     3.3678 Cl    291 CCL4  -0.0812 
1613 C        8.0112    -0.0741     2.6804 C.3   291 CCL4   0.3246 
1614 CL       9.2952     0.9273     1.9666 Cl    291 CCL4  -0.0812 
1615 CL       7.2028     0.8383     3.9781 Cl    291 CCL4  -0.0812 
1616 CL       6.8352    -0.5214     1.4233 Cl    291 CCL4  -0.0812 
1617 CL       9.2498    -7.1080    21.4876 Cl    292 CCL4  -0.0812 
1618 C        9.0255    -5.3496    21.6395 C.3   292 CCL4   0.3246 
1619 CL      10.1133    -4.7272    22.9020 Cl    292 CCL4  -0.0812 
1620 CL       7.3247    -4.9999    22.0323 Cl    292 CCL4  -0.0812 
1621 CL       9.4267    -4.5745    20.0893 Cl    292 CCL4  -0.0812 
1622 CL      14.6459    -5.3159    -9.4222 Cl    293 CCL4  -0.0812 
1623 C       12.9187    -5.5317    -9.0456 C.3   293 CCL4   0.3246 
1624 CL      12.4874    -4.4418    -7.7080 Cl    293 CCL4  -0.0812 
1625 CL      12.5854    -7.2141    -8.5747 Cl    293 CCL4  -0.0812 
1626 CL      11.9750    -5.1104   -10.4925 Cl    293 CCL4  -0.0812 
1627 CL       7.9513    -2.6536   -15.1686 Cl    294 CCL4  -0.0812 
1628 C        7.8637    -3.8862   -13.8948 C.3   294 CCL4   0.3246 
1629 CL       6.3448    -3.6920   -13.0055 Cl    294 CCL4  -0.0812 
1630 CL       9.2238    -3.6282   -12.7829 Cl    294 CCL4  -0.0812 
1631 CL       7.9576    -5.5173   -14.5912 Cl    294 CCL4  -0.0812 
1632 CL       8.2221     1.0239   -13.0631 Cl    295 CCL4  -0.0812 
1633 C        7.2889     1.3381   -11.5794 C.3   295 CCL4   0.3246 
1634 CL       7.6334     2.9718   -10.9628 Cl    295 CCL4  -0.0812 
1635 CL       7.7200     0.1207   -10.3612 Cl    295 CCL4  -0.0812 
1636 CL       5.5547     1.2116   -11.9389 Cl    295 CCL4  -0.0812 
1637 CL      -6.4442    -8.1947     9.6027 Cl    296 CCL4  -0.0812 
1638 C       -6.5856    -6.6264    10.4399 C.3   296 CCL4   0.3246 
1639 CL      -7.3944    -5.4277     9.3996 Cl    296 CCL4  -0.0812 
1640 CL      -4.9545    -6.0440    10.8548 Cl    296 CCL4  -0.0812 
1641 CL      -7.5296    -6.8334    11.9362 Cl    296 CCL4  -0.0812 
1642 CL       6.6102   -11.2636     7.2931 Cl    297 CCL4  -0.0812 
1643 C        7.2007   -10.3693     8.7085 C.3   297 CCL4   0.3246 
1644 CL       6.6823   -11.2330    10.1753 Cl    297 CCL4  -0.0812 
1645 CL       6.5210    -8.7273     8.7406 Cl    297 CCL4  -0.0812 
1646 CL       8.9818   -10.2926     8.6700 Cl    297 CCL4  -0.0812 
1647 CL       4.0267    18.3153    13.4154 Cl    298 CCL4  -0.0812 
1648 C        3.1401    18.7859    11.9449 C.3   298 CCL4   0.3246 
1649 CL       1.4531    18.2381    12.0636 Cl    298 CCL4  -0.0812 
1650 CL       3.9150    18.0411    10.5267 Cl    298 CCL4  -0.0812 
1651 CL       3.1584    20.5587    11.7862 Cl    298 CCL4  -0.0812 
1652 CL      -2.3246    -8.2016    12.6266 Cl    299 CCL4  -0.0812 
1653 C       -1.5242    -9.7651    12.3307 C.3   299 CCL4   0.3246 
1654 CL      -1.4689   -10.7003    13.8437 Cl    299 CCL4  -0.0812 
1655 CL       0.1334    -9.4765    11.7514 Cl    299 CCL4  -0.0812 
1656 CL      -2.4426   -10.6681    11.1013 Cl    299 CCL4  -0.0812 
1657 CL       1.0384     0.7388    12.6368 Cl    300 CCL4  -0.0812 
1658 C        0.5976     2.3477    12.0397 C.3   300 CCL4   0.3246 
1659 CL      -0.9333     2.8447    12.7988 Cl    300 CCL4  -0.0812 
1660 CL       0.3925     2.2942    10.2750 Cl    300 CCL4  -0.0812 
1661 CL       1.8797     3.5039    12.4703 Cl    300 CCL4  -0.0812 
1662 CL       3.7219   -12.0607    13.4014 Cl    301 CCL4  -0.0812 
1663 C        3.2654   -13.6953    12.8682 C.3   301 CCL4   0.3246 
1664 CL       4.5686   -14.8386    13.2687 Cl    301 CCL4  -0.0812 
1665 CL       3.0058   -13.6875    11.1071 Cl    301 CCL4  -0.0812 
1666 CL       1.7709   -14.1933    13.7024 Cl    301 CCL4  -0.0812 
1667 CL       1.2878    20.4056    14.9891 Cl    302 CCL4  -0.0812 
1668 C       -0.3026    21.1940    15.0521 C.3   302 CCL4   0.3246 
1669 CL      -0.3380    22.2803    16.4541 Cl    302 CCL4  -0.0812 
1670 CL      -1.5885    19.9769    15.1704 Cl    302 CCL4  -0.0812 
1671 CL      -0.5452    22.1517    13.5724 Cl    302 CCL4  -0.0812 
1672 CL       7.8509     3.8398     8.6382 Cl    303 CCL4  -0.0812 
1673 C        6.0756     3.9552     8.5728 C.3   303 CCL4   0.3246 
1674 CL       5.4605     2.7529     7.4136 Cl    303 CCL4  -0.0812 
1675 CL       5.6098     5.5961     8.0485 Cl    303 CCL4  -0.0812 
1676 CL       5.3957     3.6481    10.1848 Cl    303 CCL4  -0.0812 
1677 CL       8.0780   -13.1597     2.7491 Cl    304 CCL4  -0.0812 
1678 C        9.2485   -14.2158     3.5770 C.3   304 CCL4   0.3246 
1679 CL      10.6109   -14.5627     2.4855 Cl    304 CCL4  -0.0812 
1680 CL       8.4531   -15.7377     4.0353 Cl    304 CCL4  -0.0812 
1681 CL       9.8434   -13.4038     5.0442 Cl    304 CCL4  -0.0812 
1682 CL       6.0501   -16.4779     6.7920 Cl    305 CCL4  -0.0812 
1683 C        4.8549   -15.8715     7.9645 C.3   305 CCL4   0.3246 
1684 CL       4.4496   -14.1796     7.6000 Cl    305 CCL4  -0.0812 
1685 CL       5.5175   -15.9903     9.6095 Cl    305 CCL4  -0.0812 
1686 CL       3.3887   -16.8699     7.8542 Cl    305 CCL4  -0.0812 
1687 CL      -0.8413   -15.4264     3.0997 Cl    306 CCL4  -0.0812 
1688 C       -0.9027   -16.3681     4.6090 C.3   306 CCL4   0.3246 
1689 CL      -1.9926   -15.5490     5.7602 Cl    306 CCL4  -0.0812 
1690 CL       0.7432   -16.4831     5.2849 Cl    306 CCL4  -0.0812 
1691 CL      -1.5252   -17.9980     4.2564 Cl    306 CCL4  -0.0812 
1692 CL       1.0349    -9.5023     6.1672 Cl    307 CCL4  -0.0812 
1693 C        1.3523   -10.9561     7.1465 C.3   307 CCL4   0.3246 
1694 CL       0.0137   -11.1910     8.2936 Cl    307 CCL4  -0.0812 
1695 CL       2.8827   -10.7372     8.0334 Cl    307 CCL4  -0.0812 
1696 CL       1.4859   -12.3620     6.0609 Cl    307 CCL4  -0.0812 
1697 CL      -4.8422   -12.4419     5.2831 Cl    308 CCL4  -0.0812 
1698 C       -3.5388   -11.6468     6.2018 C.3   308 CCL4   0.3246 
1699 CL      -3.3539   -12.4557     7.7791 Cl    308 CCL4  -0.0812 
1700 CL      -3.9512    -9.9330     6.4666 Cl    308 CCL4  -0.0812 
1701 CL      -2.0118   -11.7752     5.2997 Cl    308 CCL4  -0.0812 
1702 CL       0.6576   -16.5788    10.4683 Cl    309 CCL4  -0.0812 
1703 C       -0.4223   -15.3138     9.8361 C.3   309 CCL4   0.3246 
1704 CL       0.3071   -14.6087     8.3804 Cl    309 CCL4  -0.0812 
1705 CL      -0.6500   -14.0380    11.0555 Cl    309 CCL4  -0.0812 
1706 CL      -1.9992   -16.0216     9.4306 Cl    309 CCL4  -0.0812 
1707 CL      -5.9399     3.5141     9.7237 Cl    310 CCL4  -0.0812 
1708 C       -6.6955     3.2345    11.3090 C.3   310 CCL4   0.3246 
1709 CL      -7.5477     1.6710    11.3075 Cl    310 CCL4  -0.0812 
1710 CL      -7.8628     4.5360    11.6274 Cl    310 CCL4  -0.0812 
1711 CL      -5.4530     3.2587    12.5857 Cl    310 CCL4  -0.0812 
1712 CL      -1.7625    21.5583    20.9830 Cl    311 CCL4  -0.0812 
1713 C       -0.2604    20.9165    20.2807 C.3   311 CCL4   0.3246 
1714 CL      -0.6478    19.8582    18.9058 Cl    311 CCL4  -0.0812 
1715 CL       0.6216    19.9802    21.5112 Cl    311 CCL4  -0.0812 
1716 CL       0.7652    22.2739    19.7587 Cl    311 CCL4  -0.0812 
1717 CL       4.9314   -13.2045    16.6578 Cl    312 CCL4  -0.0812 
1718 C        5.7394   -12.2952    17.9624 C.3   312 CCL4   0.3246 
1719 CL       6.8115   -11.0676    17.2445 Cl    312 CCL4  -0.0812 
1720 CL       6.6962   -13.4009    18.9722 Cl    312 CCL4  -0.0812 
1721 CL       4.4987   -11.5250    18.9808 Cl    312 CCL4  -0.0812 
1722 CL       3.6629    -9.5776    16.2645 Cl    313 CCL4  -0.0812 
1723 C        1.9326    -9.4785    16.6626 C.3   313 CCL4   0.3246 
1724 CL       1.7284    -8.6379    18.2183 Cl    313 CCL4  -0.0812 
1725 CL       1.2555   -11.1227    16.7759 Cl    313 CCL4  -0.0812 
1726 CL       1.1023    -8.5808    15.3672 Cl    313 CCL4  -0.0812 
1727 CL       9.6005    22.2101    15.9803 Cl    314 CCL4  -0.0812 
1728 C        8.6832    22.8552    17.3639 C.3   314 CCL4   0.3246 
1729 CL       7.3926    23.9250    16.7645 Cl    314 CCL4  -0.0812 
1730 CL       9.7795    23.7835    18.4137 Cl    314 CCL4  -0.0812 
1731 CL       7.9510    21.5106    18.2716 Cl    314 CCL4  -0.0812 
1732 CL      -2.1185   -14.7302    14.8580 Cl    315 CCL4  -0.0812 
1733 C       -3.2023   -15.3395    16.1354 C.3   315 CCL4   0.3246 
1734 CL      -4.6722   -14.3482    16.1976 Cl    315 CCL4  -0.0812 
1735 CL      -2.3793   -15.2685    17.7134 Cl    315 CCL4  -0.0812 
1736 CL      -3.6812   -17.0149    15.7663 Cl    315 CCL4  -0.0812 
1737 CL       4.5026    -5.9838     9.6958 Cl    316 CCL4  -0.0812 
1738 C        3.2877    -6.8799    10.6202 C.3   316 CCL4   0.3246 
1739 CL       2.0847    -7.5472     9.4968 Cl    316 CCL4  -0.0812 
1740 CL       2.4659    -5.7912    11.7609 Cl    316 CCL4  -0.0812 
1741 CL       4.0860    -8.1978    11.5112 Cl    316 CCL4  -0.0812 
1742 CL       2.6792    -1.6311    17.7155 Cl    317 CCL4  -0.0812 
1743 C        2.5631    -1.2668    15.9786 C.3   317 CCL4   0.3246 
1744 CL       1.2510    -2.2367    15.2650 Cl    317 CCL4  -0.0812 
1745 CL       4.1037    -1.6513    15.1812 Cl    317 CCL4  -0.0812 
1746 CL       2.2251     0.4651    15.7834 Cl    317 CCL4  -0.0812 
1747 CL      -1.8105    -1.1744    13.2028 Cl    318 CCL4  -0.0812 
1748 C       -3.2404    -1.8951    13.9735 C.3   318 CCL4   0.3246 
1749 CL      -3.6468    -3.4204    13.1533 Cl    318 CCL4  -0.0812 
1750 CL      -4.6113    -0.7635    13.8524 Cl    318 CCL4  -0.0812 
1751 CL      -2.8893    -2.2294    15.6894 Cl    318 CCL4  -0.0812 
1752 CL      13.8411    -6.0696     5.4511 Cl    319 CCL4  -0.0812 
1753 C       13.6271    -4.8948     4.1364 C.3   319 CCL4   0.3246 
1754 CL      14.1639    -5.6191     2.6040 Cl    319 CCL4  -0.0812 
1755 CL      14.5877    -3.4320     4.4453 Cl    319 CCL4  -0.0812 
1756 CL      11.9121    -4.4292     4.0419 Cl    319 CCL4  -0.0812 
1757 CL       3.2087    -2.8742     9.0636 Cl    320 CCL4  -0.0812 
1758 C        2.3685    -1.7618    10.1653 C.3   320 CCL4   0.3246 
1759 CL       2.6949    -2.2451    11.8453 Cl    320 CCL4  -0.0812 
1760 CL       0.6152    -1.8444     9.8526 Cl    320 CCL4  -0.0812 
1761 CL       2.9775    -0.1109     9.8865 Cl    320 CCL4  -0.0812 
1762 CL       5.2195    -3.3698     3.4349 Cl    321 CCL4  -0.0812 
1763 C        4.4913    -2.3858     4.7262 C.3   321 CCL4   0.3246 
1764 CL       3.2238    -3.3296     5.5407 Cl    321 CCL4  -0.0812 
1765 CL       3.7757    -0.9187     4.0365 Cl    321 CCL4  -0.0812 
1766 CL       5.7491    -1.9367     5.9019 Cl    321 CCL4  -0.0812 
1767 CL      -1.8685    -8.5845     3.7272 Cl    322 CCL4  -0.0812 
1768 C       -0.9729    -7.1239     3.2587 C.3   322 CCL4   0.3246 
1769 CL      -1.2915    -5.8571     4.4624 Cl    322 CCL4  -0.0812 
1770 CL      -1.5331    -6.5607     1.6646 Cl    322 CCL4  -0.0812 
1771 CL       0.7688    -7.4730     3.2028 Cl    322 CCL4  -0.0812 
1772 CL      -3.5362    -0.1675     7.5688 Cl    323 CCL4  -0.0812 
1773 C       -4.1719    -0.6693     9.1595 C.3   323 CCL4   0.3246 
1774 CL      -3.2644    -2.0812     9.7481 Cl    323 CCL4  -0.0812 
1775 CL      -5.8957    -1.0864     9.0066 Cl    323 CCL4  -0.0812 
1776 CL      -3.9805     0.6554    10.3365 Cl    323 CCL4  -0.0812 
1777 CL      -1.2763    -7.4995     8.1562 Cl    324 CCL4  -0.0812 
1778 C       -1.2489    -5.7509     8.4916 C.3   324 CCL4   0.3246 
1779 CL      -2.7032    -4.9984     7.8037 Cl    324 CCL4  -0.0812 
1780 CL       0.2005    -5.0190     7.7617 Cl    324 CCL4  -0.0812 
1781 CL      -1.2154    -5.4819    10.2516 Cl    324 CCL4  -0.0812 
1782 CL      -5.8001    -6.4748     6.5321 Cl    325 CCL4  -0.0812 
1783 C       -6.0046    -5.2148     5.3007 C.3   325 CCL4   0.3246 
1784 CL      -7.7343    -5.0468     4.9063 Cl    325 CCL4  -0.0812 
1785 CL      -5.0771    -5.6858     3.8552 Cl    325 CCL4  -0.0812 
1786 CL      -5.4002    -3.6590     5.9264 Cl    325 CCL4  -0.0812 
1787 CL       6.8494    -9.5269     2.7836 Cl    326 CCL4  -0.0812 
1788 C        5.4289    -9.3085     3.8284 C.3   326 CCL4   0.3246 
1789 CL       4.7357   -10.8860     4.2656 Cl    326 CCL4  -0.0812 
1790 CL       4.2163    -8.3616     2.9442 Cl    326 CCL4  -0.0812 
1791 CL       5.8753    -8.4119     5.2946 Cl    326 CCL4  -0.0812 
1792 CL       4.9545    -4.2755    17.8426 Cl    327 CCL4  -0.0812 
1793 C        5.3020    -5.0961    16.3016 C.3   327 CCL4   0.3246 
1794 CL       3.8306    -5.1858    15.2985 Cl    327 CCL4  -0.0812 
1795 CL       5.8527    -6.7444    16.6586 Cl    327 CCL4  -0.0812 
1796 CL       6.5902    -4.2151    15.4504 Cl    327 CCL4  -0.0812 
1797 CL       6.6133     2.1598    19.7717 Cl    328 CCL4  -0.0812 
1798 C        6.7918     0.5486    19.0504 C.3   328 CCL4   0.3246 
1799 CL       8.5245     0.1710    18.9116 Cl    328 CCL4  -0.0812 
1800 CL       6.0623     0.5474    17.4284 Cl    328 CCL4  -0.0812 
1801 CL       5.9896    -0.6611    20.0817 Cl    328 CCL4  -0.0812 
1802 CL      12.0920    -3.0362    18.2815 Cl    329 CCL4  -0.0812 
1803 C       13.7770    -2.6417    18.6934 C.3   329 CCL4   0.3246 
1804 CL      14.0725    -0.9104    18.3951 Cl    329 CCL4  -0.0812 
1805 CL      14.8726    -3.6035    17.6772 Cl    329 CCL4  -0.0812 
1806 CL      14.0834    -3.0158    20.4060 Cl    329 CCL4  -0.0812 
1807 CL      -4.8131    -6.3389    20.8999 Cl    330 CCL4  -0.0812 
1808 C       -5.1044    -4.9085    19.8818 C.3   330 CCL4   0.3246 
1809 CL      -4.0650    -3.5673    20.4301 Cl    330 CCL4  -0.0812 
1810 CL      -6.8102    -4.4357    20.0580 Cl    330 CCL4  -0.0812 
1811 CL      -4.7470    -5.2975    18.1827 Cl    330 CCL4  -0.0812 
1812 CL      -4.6271    -9.1567    18.4564 Cl    331 CCL4  -0.0812 
1813 C       -3.3333   -10.1347    17.7211 C.3   331 CCL4   0.3246 
1814 CL      -3.9902   -11.0008    16.3179 Cl    331 CCL4  -0.0812 
1815 CL      -2.6968   -11.3033    18.9044 Cl    331 CCL4  -0.0812 
1816 CL      -2.0246    -9.0557    17.1857 Cl    331 CCL4  -0.0812 
1817 CL      12.4213    -7.1661     8.6451 Cl    332 CCL4  -0.0812 
1818 C       12.6328    -5.5867     9.4448 C.3   332 CCL4   0.3246 
1819 CL      12.1876    -4.2868     8.3128 Cl    332 CCL4  -0.0812 
1820 CL      14.3312    -5.4036     9.9554 Cl    332 CCL4  -0.0812 
1821 CL      11.5884    -5.5131    10.8830 Cl    332 CCL4  -0.0812 
1822 CL       9.5724   -12.3675    12.0528 Cl    333 CCL4  -0.0812 
1823 C        9.0204   -13.9086    12.7454 C.3   333 CCL4   0.3246 
1824 CL       7.8444   -13.5905    14.0392 Cl    333 CCL4  -0.0812 
1825 CL      10.4158   -14.8021    13.3973 Cl    333 CCL4  -0.0812 
1826 CL       8.2385   -14.8744    11.4762 Cl    333 CCL4  -0.0812 
1827 CL      14.9537    23.7461     2.0243 Cl    334 CCL4  -0.0812 
1828 C       14.3408    22.5465     0.8588 C.3   334 CCL4   0.3246 
1829 CL      14.0880    20.9994     1.6979 Cl    334 CCL4  -0.0812 
1830 CL      15.5437    22.3277    -0.4371 Cl    334 CCL4  -0.0812 
1831 CL      12.8021    23.1137     0.1620 Cl    334 CCL4  -0.0812 
1832 CL      14.2625     0.5828     3.0384 Cl    335 CCL4  -0.0812 
1833 C       13.6260     2.2282     3.3008 C.3   335 CCL4   0.3246 
1834 CL      13.6923     3.1444     1.7741 Cl    335 CCL4  -0.0812 
1835 CL      14.5682     3.0832     4.5490 Cl    335 CCL4  -0.0812 
1836 CL      11.9417     2.0991     3.8525 Cl    335 CCL4  -0.0812 
1837 CL      11.9209   -10.0437     5.6890 Cl    336 CCL4  -0.0812 
1838 C       10.6822    -9.5771     4.5043 C.3   336 CCL4   0.3246 
1839 CL       9.0873    -9.7774     5.2479 Cl    336 CCL4  -0.0812 
1840 CL      10.7897   -10.6067     3.0552 Cl    336 CCL4  -0.0812 
1841 CL      10.9043    -7.8726     4.0507 Cl    336 CCL4  -0.0812 
1842 CL       9.1368     0.4756     7.0637 Cl    337 CCL4  -0.0812 
1843 C       10.8295     0.5190     7.6104 C.3   337 CCL4   0.3246 
1844 CL      10.9502    -0.1378     9.2592 Cl    337 CCL4  -0.0812 
1845 CL      11.4105     2.2039     7.6014 Cl    337 CCL4  -0.0812 
1846 CL      11.8354    -0.4534     6.5076 Cl    337 CCL4  -0.0812 
1847 CL      12.9281   -12.7225    17.3465 Cl    338 CCL4  -0.0812 
1848 C       12.2230   -11.8555    15.9655 C.3   338 CCL4   0.3246 
1849 CL      10.4767   -12.1857    15.9071 Cl    338 CCL4  -0.0812 
1850 CL      13.0129   -12.3932    14.4631 Cl    338 CCL4  -0.0812 
1851 CL      12.4718   -10.1061    16.1619 Cl    338 CCL4  -0.0812 
1852 CL       9.2714    -9.0091    14.7415 Cl    339 CCL4  -0.0812 
1853 C        8.0730    -8.7910    13.4474 C.3   339 CCL4   0.3246 
1854 CL       6.8601   -10.0829    13.5446 Cl    339 CCL4  -0.0812 
1855 CL       8.8821    -8.8612    11.8679 Cl    339 CCL4  -0.0812 
1856 CL       7.2611    -7.2282    13.6411 Cl    339 CCL4  -0.0812 
1857 CL      12.6593    21.5380    17.7925 Cl    340 CCL4  -0.0812 
1858 C       13.7434    22.8396    17.2482 C.3   340 CCL4   0.3246 
1859 CL      12.8962    23.8699    16.0689 Cl    340 CCL4  -0.0812 
1860 CL      15.1742    22.1220    16.4763 Cl    340 CCL4  -0.0812 
1861 CL      14.2122    23.8226    18.6531 Cl    340 CCL4  -0.0812 
1862 CL       9.8245     3.8503    18.2091 Cl    341 CCL4  -0.0812 
1863 C       10.7863     3.1764    16.8730 C.3   341 CCL4   0.3246 
1864 CL      12.2848     2.4675    17.5229 Cl    341 CCL4  -0.0812 
1865 CL      11.1761     4.4710    15.7165 Cl    341 CCL4  -0.0812 
1866 CL       9.8372     1.9176    16.0525 Cl    341 CCL4  -0.0812 
1867 CL       9.1261    -6.5780     7.3441 Cl    342 CCL4  -0.0812 
1868 C        8.2605    -5.3003     6.4567 C.3   342 CCL4   0.3246 
1869 CL       9.1831    -3.7824     6.5394 Cl    342 CCL4  -0.0812 
1870 CL       6.6540    -5.0509     7.1713 Cl    342 CCL4  -0.0812 
1871 CL       8.0647    -5.7986     4.7619 Cl    342 CCL4  -0.0812 
1872 CL      12.9752    -4.3857    14.8196 Cl    343 CCL4  -0.0812 
1873 C       12.0937    -5.9021    15.1379 C.3   343 CCL4   0.3246 
1874 CL      12.3370    -6.4168    16.8232 Cl    343 CCL4  -0.0812 
1875 CL      12.6950    -7.1680    14.0437 Cl    343 CCL4  -0.0812 
1876 CL      10.3574    -5.6416    14.8539 Cl    343 CCL4  -0.0812 
1877 CL       7.6128    -2.9933     9.9110 Cl    344 CCL4  -0.0812 
1878 C        7.5791    -4.1076    11.2959 C.3   344 CCL4   0.3246 
1879 CL       5.9897    -3.9959    12.0867 Cl    344 CCL4  -0.0812 
1880 CL       8.8550    -3.6340    12.4361 Cl    344 CCL4  -0.0812 
1881 CL       7.8588    -5.7586    10.7063 Cl    344 CCL4  -0.0812 
1882 CL       7.9012     1.4790    11.6206 Cl    345 CCL4  -0.0812 
1883 C        6.8956     1.3836    13.0905 C.3   345 CCL4   0.3246 
1884 CL       7.0460     2.8720    14.0536 Cl    345 CCL4  -0.0812 
1885 CL       7.4163    -0.0189    14.0578 Cl    345 CCL4  -0.0812 
1886 CL       5.1866     1.1599    12.6438 Cl    345 CCL4  -0.0812 
1887 CL      -5.4922    17.5378   -15.3063 Cl    346 CCL4  -0.0812 
1888 C       -5.3005    19.0101   -14.3382 C.3   346 CCL4   0.3246 
1889 CL      -6.4297    20.2380   -14.9444 Cl    346 CCL4  -0.0812 
1890 CL      -3.6324    19.6038   -14.4898 Cl    346 CCL4  -0.0812 
1891 CL      -5.6515    18.6536   -12.6329 Cl    346 CCL4  -0.0812 
1892 CL       8.7489    14.7090   -18.6954 Cl    347 CCL4  -0.0812 
1893 C        7.7046    14.9174   -17.2637 C.3   347 CCL4   0.3246 
1894 CL       6.4555    13.6485   -17.2474 Cl    347 CCL4  -0.0812 
1895 CL       6.9215    16.5090   -17.3401 Cl    347 CCL4  -0.0812 
1896 CL       8.6805    14.8043   -15.7799 Cl    347 CCL4  -0.0812 
1897 CL       4.0709     6.1464   -12.3882 Cl    348 CCL4  -0.0812 
1898 C        3.7422     7.1692   -13.8066 C.3   348 CCL4   0.3246 
1899 CL       2.0952     6.8409   -14.3978 Cl    348 CCL4  -0.0812 
1900 CL       4.9062     6.8007   -15.1026 Cl    348 CCL4  -0.0812 
1901 CL       3.8818     8.8862   -13.3578 Cl    348 CCL4  -0.0812 
1902 CL      -0.2202    17.6263   -14.1055 Cl    349 CCL4  -0.0812 
1903 C       -1.2832    16.2374   -14.4325 C.3   349 CCL4   0.3246 
1904 CL      -2.3753    16.0037   -13.0424 Cl    349 CCL4  -0.0812 
1905 CL      -0.2897    14.7828   -14.6863 Cl    349 CCL4  -0.0812 
1906 CL      -2.2392    16.5511   -15.8976 Cl    349 CCL4  -0.0812 
1907 CL       2.6339    14.5181   -12.1945 Cl    350 CCL4  -0.0812 
1908 C        3.1772    12.8678   -12.5678 C.3   350 CCL4   0.3246 
1909 CL       4.1257    12.2307   -11.1990 Cl    350 CCL4  -0.0812 
1910 CL       4.1940    12.8920   -14.0299 Cl    350 CCL4  -0.0812 
1911 CL       1.7541    11.8289   -12.8340 Cl    350 CCL4  -0.0812 
1912 CL      -1.6704     5.7615   -15.5012 Cl    351 CCL4  -0.0812 
1913 C       -3.1226     5.1474   -16.3269 C.3   351 CCL4   0.3246 
1914 CL      -2.9526     3.3979   -16.5979 Cl    351 CCL4  -0.0812 
1915 CL      -3.3074     5.9487   -17.9009 Cl    351 CCL4  -0.0812 
1916 CL      -4.5557     5.4808   -15.3231 Cl    351 CCL4  -0.0812 
1917 CL       2.3997     6.3726    -7.1328 Cl    352 CCL4  -0.0812 
1918 C        3.0140     4.8215    -7.7465 C.3   352 CCL4   0.3246 
1919 CL       4.6222     5.0492    -8.4710 Cl    352 CCL4  -0.0812 
1920 CL       1.9034     4.1900    -8.9836 Cl    352 CCL4  -0.0812 
1921 CL       3.1146     3.6609    -6.4015 Cl    352 CCL4  -0.0812 
1922 CL      -0.0723     5.3896   -11.6505 Cl    353 CCL4  -0.0812 
1923 C       -0.2109     7.0639   -11.0777 C.3   353 CCL4   0.3246 
1924 CL       1.3953     7.6213   -10.5404 Cl    353 CCL4  -0.0812 
1925 CL      -1.3696     7.1187    -9.7265 Cl    353 CCL4  -0.0812 
1926 CL      -0.7871     8.0872   -12.4183 Cl    353 CCL4  -0.0812 
1927 CL      -4.9469    15.9779     2.6931 Cl    354 CCL4  -0.0812 
1928 C       -4.3905    15.4960     1.0796 C.3   354 CCL4   0.3246 
1929 CL      -2.7245    14.9062     1.2095 Cl    354 CCL4  -0.0812 
1930 CL      -4.4828    16.9136     0.0070 Cl    354 CCL4  -0.0812 
1931 CL      -5.4245    14.1797     0.4831 Cl    354 CCL4  -0.0812 
1932 CL       4.4187    10.0070    23.1234 Cl    355 CCL4  -0.0812 
1933 C        4.5050     9.3161    21.4828 C.3   355 CCL4   0.3246 
1934 CL       3.7273     7.7150    21.4732 Cl    355 CCL4  -0.0812 
1935 CL       6.2039     9.1454    20.9816 Cl    355 CCL4  -0.0812 
1936 CL       3.6532    10.3791    20.3430 Cl    355 CCL4  -0.0812 
1937 CL       4.0173    16.4379    20.6351 Cl    356 CCL4  -0.0812 
1938 C        2.9744    15.7615    21.9087 C.3   356 CCL4   0.3246 
1939 CL       1.3118    16.3483    21.6789 Cl    356 CCL4  -0.0812 
1940 CL       3.5440    16.2883    23.5127 Cl    356 CCL4  -0.0812 
1941 CL       2.9962    13.9872    21.8157 Cl    356 CCL4  -0.0812 
1942 CL       0.2388    10.5026   -16.5212 Cl    357 CCL4  -0.0812 
1943 C       -1.4675    10.7886   -16.0851 C.3   357 CCL4   0.3246 
1944 CL      -2.2216    11.8929   -17.2609 Cl    357 CCL4  -0.0812 
1945 CL      -1.5667    11.4987   -14.4600 Cl    357 CCL4  -0.0812 
1946 CL      -2.3384     9.2406   -16.0712 Cl    357 CCL4  -0.0812 
1947 CL       6.5777     5.3225    -0.6281 Cl    358 CCL4  -0.0812 
1948 C        7.3945     3.8040    -0.2089 C.3   358 CCL4   0.3246 
1949 CL       9.0191     4.1647     0.4274 Cl    358 CCL4  -0.0812 
1950 CL       7.4856     2.7606    -1.6476 Cl    358 CCL4  -0.0812 
1951 CL       6.4482     2.9700     1.0448 Cl    358 CCL4  -0.0812 
1952 CL       8.7893    14.1736    -2.7759 Cl    359 CCL4  -0.0812 
1953 C        9.1818    13.2085    -1.3357 C.3   359 CCL4   0.3246 
1954 CL       7.6987    12.9101    -0.3943 Cl    359 CCL4  -0.0812 
1955 CL      10.3811    14.0734    -0.3436 Cl    359 CCL4  -0.0812 
1956 CL       9.8572    11.6465    -1.8565 Cl    359 CCL4  -0.0812 
1957 CL      -5.8559     6.0658    -2.7479 Cl    360 CCL4  -0.0812 
1958 C       -5.3686     4.3859    -3.1120 C.3   360 CCL4   0.3246 
1959 CL      -6.5365     3.2476    -2.3954 Cl    360 CCL4  -0.0812 
1960 CL      -3.7530     4.0809    -2.4295 Cl    360 CCL4  -0.0812 
1961 CL      -5.3155     4.1340    -4.8701 Cl    360 CCL4  -0.0812 
1962 CL       6.8666    13.5668    -8.9297 Cl    361 CCL4  -0.0812 
1963 C        6.3935    13.5277    -7.2151 C.3   361 CCL4   0.3246 
1964 CL       5.9123    15.1545    -6.6906 Cl    361 CCL4  -0.0812 
1965 CL       7.7586    12.9780    -6.2176 Cl    361 CCL4  -0.0812 
1966 CL       5.0290    12.4045    -7.0151 Cl    361 CCL4  -0.0812 
1967 CL       3.4039    16.1371    -8.9715 Cl    362 CCL4  -0.0812 
1968 C        1.7669    15.5923    -8.5150 C.3   362 CCL4   0.3246 
1969 CL       1.2925    16.3096    -6.9578 Cl    362 CCL4  -0.0812 
1970 CL       1.7499    13.8151    -8.3897 Cl    362 CCL4  -0.0812 
1971 CL       0.6023    16.1018    -9.7597 Cl    362 CCL4  -0.0812 
1972 CL       7.5961     9.6878    -8.4590 Cl    363 CCL4  -0.0812 
1973 C        6.6009     8.2147    -8.4690 C.3   363 CCL4   0.3246 
1974 CL       5.5964     8.2191    -9.9381 Cl    363 CCL4  -0.0812 
1975 CL       5.5563     8.1998    -7.0307 Cl    363 CCL4  -0.0812 
1976 CL       7.6711     6.7998    -8.4648 Cl    363 CCL4  -0.0812 
1977 CL      10.0131    15.9884    -6.2759 Cl    364 CCL4  -0.0812 
1978 C       10.8401    16.9031    -4.9949 C.3   364 CCL4   0.3246 
1979 CL      11.8996    15.8038    -4.0855 Cl    364 CCL4  -0.0812 
1980 CL       9.6351    17.5944    -3.8811 Cl    364 CCL4  -0.0812 
1981 CL      11.8209    18.2014    -5.7224 Cl    364 CCL4  -0.0812 
1982 CL      -2.0759    13.1330    -9.1428 Cl    365 CCL4  -0.0812 
1983 C       -2.5853    11.4654    -9.5008 C.3   365 CCL4   0.3246 
1984 CL      -3.7020    11.4660   -10.8836 Cl    365 CCL4  -0.0812 
1985 CL      -3.3997    10.7578    -8.0842 Cl    365 CCL4  -0.0812 
1986 CL      -1.1402    10.5089    -9.8891 Cl    365 CCL4  -0.0812 
1987 CL      -1.2715    18.0213    -1.0013 Cl    366 CCL4  -0.0812 
1988 C       -1.5832    17.0958    -2.4901 C.3   366 CCL4   0.3246 
1989 CL      -2.8513    17.8935    -3.4512 Cl    366 CCL4  -0.0812 
1990 CL      -2.1043    15.4480    -2.0883 Cl    366 CCL4  -0.0812 
1991 CL      -0.0888    16.9974    -3.4452 Cl    366 CCL4  -0.0812 
1992 CL       3.3039    15.9138    -1.7035 Cl    367 CCL4  -0.0812 
1993 C        4.0458    15.8548    -3.3220 C.3   367 CCL4   0.3246 
1994 CL       5.8127    15.8689    -3.1573 Cl    367 CCL4  -0.0812 
1995 CL       3.5327    17.2693    -4.2740 Cl    367 CCL4  -0.0812 
1996 CL       3.5264    14.3614    -4.1415 Cl    367 CCL4  -0.0812 
1997 CL      -5.5500    16.6654    -6.7374 Cl    368 CCL4  -0.0812 
1998 C       -4.3563    15.6212    -7.5317 C.3   368 CCL4   0.3246 
1999 CL      -5.0193    15.0315    -9.0775 Cl    368 CCL4  -0.0812 
2000 CL      -3.9970    14.2380    -6.4754 Cl    368 CCL4  -0.0812 
2001 CL      -2.8702    16.5604    -7.8165 Cl    368 CCL4  -0.0812 
2002 CL      10.0155    20.1977    -0.3150 Cl    369 CCL4  -0.0812 
2003 C        8.7774    19.0618     0.2685 C.3   369 CCL4   0.3246 
2004 CL       8.4549    19.3489     1.9972 Cl    369 CCL4  -0.0812 
2005 CL       9.3451    17.3963     0.0321 Cl    369 CCL4  -0.0812 
2006 CL       7.2763    19.2983    -0.6619 Cl    369 CCL4  -0.0812 
2007 CL      12.6685    19.8932   -15.1681 Cl    370 CCL4  -0.0812 
2008 C       13.6490    20.1569   -13.7036 C.3   370 CCL4   0.3246 
2009 CL      14.4903    21.7168   -13.8440 Cl    370 CCL4  -0.0812 
2010 CL      14.8379    18.8427   -13.5412 Cl    370 CCL4  -0.0812 
2011 CL      12.5795    20.1828   -12.2833 Cl    370 CCL4  -0.0812 
2012 CL       9.0081    12.7895   -12.7298 Cl    371 CCL4  -0.0812 
2013 C        8.9783    11.1231   -13.3662 C.3   371 CCL4   0.3246 
2014 CL       7.5876    10.2524   -12.6661 Cl    371 CCL4  -0.0812 
2015 CL      10.4852    10.2799   -12.9198 Cl    371 CCL4  -0.0812 
2016 CL       8.8294    11.1491   -15.1437 Cl    371 CCL4  -0.0812 
2017 CL       8.5476     6.8877   -15.2663 Cl    372 CCL4  -0.0812 
2018 C        9.4805     6.1928   -13.9201 C.3   372 CCL4   0.3246 
2019 CL      11.1834     6.7020   -14.0502 Cl    372 CCL4  -0.0812 
2020 CL       9.3777     4.4177   -13.9841 Cl    372 CCL4  -0.0812 
2021 CL       8.8009     6.7650   -12.3800 Cl    372 CCL4  -0.0812 
2022 CL      11.3547    12.2497    -6.4591 Cl    373 CCL4  -0.0812 
2023 C       11.8275    12.9993    -8.0049 C.3   373 CCL4   0.3246 
2024 CL      10.3962    13.6381    -8.8483 Cl    373 CCL4  -0.0812 
2025 CL      12.6190    11.7832    -9.0336 Cl    373 CCL4  -0.0812 
2026 CL      12.9754    14.3200    -7.6856 Cl    373 CCL4  -0.0812 
2027 CL       8.4597    16.5209   -10.2870 Cl    374 CCL4  -0.0812 
2028 C        7.5770    17.0702   -11.7322 C.3   374 CCL4   0.3246 
2029 CL       6.6944    15.6976   -12.4466 Cl    374 CCL4  -0.0812 
2030 CL       8.7348    17.7260   -12.9165 Cl    374 CCL4  -0.0812 
2031 CL       6.4271    18.3485   -11.2593 Cl    374 CCL4  -0.0812 
2032 CL      11.7827     7.5387    -7.7263 Cl    375 CCL4  -0.0812 
2033 C       13.5058     7.7803    -8.0894 C.3   375 CCL4   0.3246 
2034 CL      13.7042     8.0585    -9.8350 Cl    375 CCL4  -0.0812 
2035 CL      14.4173     6.3210    -7.6424 Cl    375 CCL4  -0.0812 
2036 CL      14.0972     9.1867    -7.1773 Cl    375 CCL4  -0.0812 
2037 CL      -4.3999    10.0733    -3.9628 Cl    376 CCL4  -0.0812 
2038 C       -3.3768    10.2447    -2.5135 C.3   376 CCL4   0.3246 
2039 CL      -3.0887    11.9728    -2.1922 Cl    376 CCL4  -0.0812 
2040 CL      -4.1965     9.5068    -1.1145 Cl    376 CCL4  -0.0812 
2041 CL      -1.8227     9.4242    -2.8017 Cl    376 CCL4  -0.0812 
2042 CL       8.5137     8.9107    -4.9409 Cl    377 CCL4  -0.0812 
2043 C        9.5608     7.6882    -4.1862 C.3   377 CCL4   0.3246 
2044 CL       8.8385     7.1718    -2.6416 Cl    377 CCL4  -0.0812 
2045 CL      11.1590     8.4106    -3.8793 Cl    377 CCL4  -0.0812 
2046 CL       9.7290     6.2848    -5.2691 Cl    377 CCL4  -0.0812 
2047 CL       9.5215    18.8021    23.1692 Cl    378 CCL4  -0.0812 
2048 C        8.9024    20.3635    22.5802 C.3   378 CCL4   0.3246 
2049 CL       8.7512    21.5001    23.9388 Cl    378 CCL4  -0.0812 
2050 CL       7.3091    20.1344    21.8199 Cl    378 CCL4  -0.0812 
2051 CL      10.0283    21.0170    21.3682 Cl    378 CCL4  -0.0812 
2052 CL      -6.5397    16.1373     9.3930 Cl    379 CCL4  -0.0812 
2053 C       -6.6871    17.8482     9.8497 C.3   379 CCL4   0.3246 
2054 CL      -7.1347    18.7991     8.4136 Cl    379 CCL4  -0.0812 
2055 CL      -5.1076    18.4045    10.4561 Cl    379 CCL4  -0.0812 
2056 CL      -7.9242    18.0112    11.1191 Cl    379 CCL4  -0.0812 
2057 CL       7.1203    13.7110     7.0479 Cl    380 CCL4  -0.0812 
2058 C        7.3711    14.8960     8.3509 C.3   380 CCL4   0.3246 
2059 CL       6.8663    14.2126     9.9186 Cl    380 CCL4  -0.0812 
2060 CL       6.4160    16.3520     8.0053 Cl    380 CCL4  -0.0812 
2061 CL       9.0994    15.2935     8.4179 Cl    380 CCL4  -0.0812 
2062 CL       4.2519     6.2245    13.5899 Cl    381 CCL4  -0.0812 
2063 C        4.3161     7.7151    12.6193 C.3   381 CCL4   0.3246 
2064 CL       3.9025     7.3508    10.9277 Cl    381 CCL4  -0.0812 
2065 CL       5.9573     8.4011    12.6742 Cl    381 CCL4  -0.0812 
2066 CL       3.1578     8.9058    13.2574 Cl    381 CCL4  -0.0812 
2067 CL      -2.0161    17.3566    12.0101 Cl    382 CCL4  -0.0812 
2068 C       -1.7733    15.5936    12.0432 C.3   382 CCL4   0.3246 
2069 CL      -1.9943    15.0244    13.7061 Cl    382 CCL4  -0.0812 
2070 CL      -0.1357    15.1796    11.4918 Cl    382 CCL4  -0.0812 
2071 CL      -2.9777    14.8163    10.9919 Cl    382 CCL4  -0.0812 
2072 CL       3.4825    14.5940    12.1538 Cl    383 CCL4  -0.0812 
2073 C        3.2612    12.8556    12.4363 C.3   383 CCL4   0.3246 
2074 CL       4.8437    12.0854    12.6918 Cl    383 CCL4  -0.0812 
2075 CL       2.4773    12.1083    11.0258 Cl    383 CCL4  -0.0812 
2076 CL       2.2385    12.6303    13.8772 Cl    383 CCL4  -0.0812 
2077 CL       1.5400     6.1992    15.9910 Cl    384 CCL4  -0.0812 
2078 C        1.9237     4.8531    17.0806 C.3   384 CCL4   0.3246 
2079 CL       3.1743     3.8305    16.3312 Cl    384 CCL4  -0.0812 
2080 CL       0.4516     3.8917    17.3609 Cl    384 CCL4  -0.0812 
2081 CL       2.5298     5.5248    18.6118 Cl    384 CCL4  -0.0812 
2082 CL      -0.1189     6.4104    12.8783 Cl    385 CCL4  -0.0812 
2083 C       -1.3715     7.3726    13.6985 C.3   385 CCL4   0.3246 
2084 CL      -0.6424     8.8632    14.3413 Cl    385 CCL4  -0.0812 
2085 CL      -2.0781     6.4081    15.0221 Cl    385 CCL4  -0.0812 
2086 CL      -2.6348     7.7888    12.5176 Cl    385 CCL4  -0.0812 
2087 CL       8.8953    13.4787     2.8095 Cl    386 CCL4  -0.0812 
2088 C        9.8325    12.0280     3.2232 C.3   386 CCL4   0.3246 
2089 CL      10.5862    11.3371     1.7683 Cl    386 CCL4  -0.0812 
2090 CL       8.7187    10.8343     3.9272 Cl    386 CCL4  -0.0812 
2091 CL      11.0910    12.4552     4.3998 Cl    386 CCL4  -0.0812 
2092 CL       4.2675    11.8946     6.4434 Cl    387 CCL4  -0.0812 
2093 C        4.8388    10.5436     7.4473 C.3   387 CCL4   0.3246 
2094 CL       3.4824     9.4320     7.7553 Cl    387 CCL4  -0.0812 
2095 CL       5.4321    11.1565     9.0067 Cl    387 CCL4  -0.0812 
2096 CL       6.1489     9.6853     6.5998 Cl    387 CCL4  -0.0812 
2097 CL       3.1969    16.3106     6.3174 Cl    388 CCL4  -0.0812 
2098 C        2.3452    15.3857     7.5750 C.3   388 CCL4   0.3246 
2099 CL       1.3036    16.4914     8.4957 Cl    388 CCL4  -0.0812 
2100 CL       3.5287    14.6187     8.6527 Cl    388 CCL4  -0.0812 
2101 CL       1.3507    14.1299     6.8090 Cl    388 CCL4  -0.0812 
2102 CL      -4.4043    13.4905     5.0206 Cl    389 CCL4  -0.0812 
2103 C       -3.8383    14.4814     6.3871 C.3   389 CCL4   0.3246 
2104 CL      -3.9889    13.5491     7.9006 Cl    389 CCL4  -0.0812 
2105 CL      -4.8188    15.9631     6.4701 Cl    389 CCL4  -0.0812 
2106 CL      -2.1319    14.9138     6.1176 Cl    389 CCL4  -0.0812 
2107 CL       0.1110     9.3030     9.8931 Cl    390 CCL4  -0.0812 
2108 C       -1.0636    10.6397     9.9256 C.3   390 CCL4   0.3246 
2109 CL      -0.6150    11.8636     8.7141 Cl    390 CCL4  -0.0812 
2110 CL      -1.0905    11.3811    11.5448 Cl    390 CCL4  -0.0812 
2111 CL      -2.6771    10.0051     9.5347 Cl    390 CCL4  -0.0812 
2112 CL      -2.0414     8.9519    20.5059 Cl    391 CCL4  -0.0812 
2113 C       -1.9878     7.8264    19.1290 C.3   391 CCL4   0.3246 
2114 CL      -3.6280     7.2643    18.7183 Cl    391 CCL4  -0.0812 
2115 CL      -0.9413     6.4369    19.5144 Cl    391 CCL4  -0.0812 
2116 CL      -1.2950     8.6930    17.7413 Cl    391 CCL4  -0.0812 
2117 CL       5.3194    12.4911    16.1277 Cl    392 CCL4  -0.0812 
2118 C        5.3388    13.4520    17.6275 C.3   392 CCL4   0.3246 
2119 CL       5.9139    15.0977    17.2838 Cl    392 CCL4  -0.0812 
2120 CL       6.4122    12.6839    18.8199 Cl    392 CCL4  -0.0812 
2121 CL       3.6892    13.5225    18.2905 Cl    392 CCL4  -0.0812 
2122 CL       2.8893    15.8061    15.7249 Cl    393 CCL4  -0.0812 
2123 C        1.4545    16.4461    16.5623 C.3   393 CCL4   0.3246 
2124 CL       1.9441    17.6849    17.7465 Cl    393 CCL4  -0.0812 
2125 CL       0.6252    15.1164    17.4004 Cl    393 CCL4  -0.0812 
2126 CL       0.3358    17.1390    15.3704 Cl    393 CCL4  -0.0812 
2127 CL       8.6080     8.1559    17.8827 Cl    394 CCL4  -0.0812 
2128 C        7.4246     8.2723    16.5609 C.3   394 CCL4   0.3246 
2129 CL       8.1086     9.2829    15.2661 Cl    394 CCL4  -0.0812 
2130 CL       5.9263     9.0042    17.1840 Cl    394 CCL4  -0.0812 
2131 CL       7.0713     6.6419    15.9317 Cl    394 CCL4  -0.0812 
2132 CL      -2.2478    12.1626    15.3626 Cl    395 CCL4  -0.0812 
2133 C       -3.6485    11.8671    16.4102 C.3   395 CCL4   0.3246 
2134 CL      -4.9907    12.9493    15.9682 Cl    395 CCL4  -0.0812 
2135 CL      -3.1758    12.1207    18.1079 Cl    395 CCL4  -0.0812 
2136 CL      -4.1693    10.1818    16.1992 Cl    395 CCL4  -0.0812 
2137 CL       0.3559    16.1759     2.2528 Cl    396 CCL4  -0.0812 
2138 C       -0.1692    17.6841     3.0405 C.3   396 CCL4   0.3246 
2139 CL       0.2034    17.6109     4.7811 Cl    396 CCL4  -0.0812 
2140 CL      -1.9214    17.9270     2.8204 Cl    396 CCL4  -0.0812 
2141 CL       0.7008    19.0594     2.3188 Cl    396 CCL4  -0.0812 
2142 CL      -1.8036    18.3384     8.1369 Cl    397 CCL4  -0.0812 
2143 C       -1.8150    20.1132     8.2737 C.3   397 CCL4   0.3246 
2144 CL      -3.3509    20.7587     7.6419 Cl    397 CCL4  -0.0812 
2145 CL      -0.4523    20.7910     7.3541 Cl    397 CCL4  -0.0812 
2146 CL      -1.6506    20.5572     9.9870 Cl    397 CCL4  -0.0812 
2147 CL       6.0934    16.0181     1.5172 Cl    398 CCL4  -0.0812 
2148 C        5.2949    16.1788     3.1025 C.3   398 CCL4   0.3246 
2149 CL       4.5021    14.6364     3.5216 Cl    398 CCL4  -0.0812 
2150 CL       4.0606    17.4606     3.0070 Cl    398 CCL4  -0.0812 
2151 CL       6.5026    16.5974     4.3438 Cl    398 CCL4  -0.0812 
2152 CL      -5.7640    16.5157    17.8391 Cl    399 CCL4  -0.0812 
2153 C       -4.3768    16.8465    16.7780 C.3   399 CCL4   0.3246 
2154 CL      -4.9094    16.8754    15.0805 Cl    399 CCL4  -0.0812 
2155 CL      -3.1489    15.5849    17.0172 Cl    399 CCL4  -0.0812 
2156 CL      -3.6519    18.3966    17.2381 Cl    399 CCL4  -0.0812 
2157 CL      12.3672    16.4637     9.1004 Cl    400 CCL4  -0.0812 
2158 C       12.5933    18.2108     9.3373 C.3   400 CCL4   0.3246 
2159 CL      12.1381    19.0874     7.8561 Cl    400 CCL4  -0.0812 
2160 CL      14.3111    18.5165     9.7004 Cl    400 CCL4  -0.0812 
2161 CL      11.5934    18.7618    10.7028 Cl    400 CCL4  -0.0812 
2162 CL      10.5620    13.2730    11.8125 Cl    401 CCL4  -0.0812 
2163 C        9.8487    11.9428    12.7539 C.3   401 CCL4   0.3246 
2164 CL       8.7273    12.6049    13.9695 Cl    401 CCL4  -0.0812 
2165 CL      11.1579    11.0247    13.5418 Cl    401 CCL4  -0.0812 
2166 CL       8.9557    10.8725    11.6479 Cl    401 CCL4  -0.0812 
2167 CL      10.2739     5.1859     4.2846 Cl    402 CCL4  -0.0812 
2168 C       10.2815     6.6015     5.3614 C.3   402 CCL4   0.3246 
2169 CL      11.3397     6.2863     6.7566 Cl    402 CCL4  -0.0812 
2170 CL       8.6243     6.9171     5.9336 Cl    402 CCL4  -0.0812 
2171 CL      10.8826     8.0164     4.4644 Cl    402 CCL4  -0.0812 
2172 CL      16.5550     7.5949     2.2647 Cl    403 CCL4  -0.0812 
2173 C       15.2095     7.8600     3.4005 C.3   403 CCL4   0.3246 
2174 CL      15.7444     7.5723     5.0766 Cl    403 CCL4  -0.0812 
2175 CL      13.9012     6.7174     3.0171 Cl    403 CCL4  -0.0812 
2176 CL      14.6118     9.5265     3.2201 Cl    403 CCL4  -0.0812 
2177 CL      10.0564    10.8361     7.2248 Cl    404 CCL4  -0.0812 
2178 C       11.7603    10.8687     7.7407 C.3   404 CCL4   0.3246 
2179 CL      12.8004    10.0709     6.5348 Cl    404 CCL4  -0.0812 
2180 CL      11.8955    10.0100     9.2968 Cl    404 CCL4  -0.0812 
2181 CL      12.2790    12.5579     7.9644 Cl    404 CCL4  -0.0812 
2182 CL       8.9361     7.1705     9.6961 Cl    405 CCL4  -0.0812 
2183 C        9.6316     6.2785    11.0685 C.3   405 CCL4   0.3246 
2184 CL      10.9645     5.2485    10.4933 Cl    405 CCL4  -0.0812 
2185 CL       8.3743     5.2823    11.8361 Cl    405 CCL4  -0.0812 
2186 CL      10.2614     7.4401    12.2593 Cl    405 CCL4  -0.0812 
2187 CL      12.4274    15.5455     5.4567 Cl    406 CCL4  -0.0812 
2188 C       11.4756    16.7318     4.5339 C.3   406 CCL4   0.3246 
2189 CL      10.0111    17.1541     5.4513 Cl    406 CCL4  -0.0812 
2190 CL      11.0086    16.0614     2.9609 Cl    406 CCL4  -0.0812 
2191 CL      12.4576    18.1904     4.2606 Cl    406 CCL4  -0.0812 
2192 CL      10.5103    11.7885    17.1516 Cl    407 CCL4  -0.0812 
2193 C       11.0476    13.4872    17.0773 C.3   407 CCL4   0.3246 
2194 CL       9.6331    14.5572    16.8700 Cl    407 CCL4  -0.0812 
2195 CL      12.1565    13.6942    15.6993 Cl    407 CCL4  -0.0812 
2196 CL      11.8950    13.9009    18.5867 Cl    407 CCL4  -0.0812 
2197 CL       9.4530    16.2616    13.3464 Cl    408 CCL4  -0.0812 
2198 C        7.8171    16.9547    13.4043 C.3   408 CCL4   0.3246 
2199 CL       6.6495    15.6993    13.8788 Cl    408 CCL4  -0.0812 
2200 CL       7.3852    17.5752    11.7908 Cl    408 CCL4  -0.0812 
2201 CL       7.7669    18.2799    14.5909 Cl    408 CCL4  -0.0812 
2202 CL      12.4734     6.2061    18.6173 Cl    409 CCL4  -0.0812 
2203 C       13.0090     7.6046    17.6549 C.3   409 CCL4   0.3246 
2204 CL      11.9198     7.8340    16.2655 Cl    409 CCL4  -0.0812 
2205 CL      14.6655     7.3139    17.0725 Cl    409 CCL4  -0.0812 
2206 CL      12.9672     9.0682    18.6732 Cl    409 CCL4  -0.0812 
2207 CL       8.7444    18.7304     8.5281 Cl    410 CCL4  -0.0812 
2208 C        7.9125    20.1180     7.8054 C.3   410 CCL4   0.3246 
2209 CL       8.3701    21.5830     8.6955 Cl    410 CCL4  -0.0812 
2210 CL       6.1503    19.8920     7.9193 Cl    410 CCL4  -0.0812 
2211 CL       8.3886    20.2896     6.1000 Cl    410 CCL4  -0.0812 
@<TRIPOS>BOND
   1    1    2  1   
   2    1    5  ar  
   3    1   13  ar  
   4    2    3  1   
   5    2    4  1   
   6    2   21  1   
   7    4   70  1   
   8    5    6  1   
   9    5    7  ar  
  10    7    8  1   
  11    7    9  ar  
  12    9   10  1   
  13    9   11  ar  
  14   11   12  1   
  15   11   13  ar  
  16   13   14  1   
  17   15   16  1   
  18   15   17  ar  
  19   15   24  ar  
  20   16   32  1   
  21   17   18  1   
  22   17   19  ar  
  23   19   20  1   
  24   19   21  ar  
  25   21   22  ar  
  26   22   23  1   
  27   22   24  ar  
  28   24   25  1   
  29   26   27  1   
  30   26   28  ar  
  31   26   35  ar  
  32   27   45  1   
  33   28   29  1   
  34   28   30  ar  
  35   30   31  1   
  36   30   32  ar  
  37   32   33  ar  
  38   33   34  1   
  39   33   35  ar  
  40   35   36  1   
  41   37   38  1   
  42   37   41  ar  
  43   37   48  ar  
  44   38   39  1   
  45   38   40  1   
  46   38   56  1   
  47   40  123  1   
  48   41   42  1   
  49   41   43  ar  
  50   43   44  1   
  51   43   45  ar  
  52   45   46  ar  
  53   46   47  1   
  54   46   48  ar  
  55   48   49  1   
  56   50   51  1   
  57   50   52  ar  
  58   50   59  ar  
  59   52   53  1   
  60   52   54  ar  
  61   54   55  1   
  62   54   56  ar  
  63   56   57  ar  
  64   57   58  1   
  65   57   59  ar  
  66   59   60  1   
  67   61   62  1   
  68   61  111  2   
  69   61  112  1   
  70   62   63  1   
  71   62   64  1   
  72   62   65  1   
  73   65   66  1   
  74   65   67  1   
  75   65  110  1   
  76   67   68  1   
  77   67   69  1   
  78   67   70  1   
  79   70   71  1   
  80   70   72  1   
  81   72   73  1   
  82   72   74  1   
  83   72  109  1   
  84   74   75  1   
  85   74   76  1   
  86   74   77  1   
  87   77   78  1   
  88   77   79  1   
  89   77  108  1   
  90   79   80  1   
  91   79   81  2   
  92   81   82  1   
  93   81   83  1   
  94   83   84  1   
  95   83  106  1   
  96   83  107  1   
  97   84   85  1   
  98   84   86  1   
  99   84  105  1   
 100   86   87  1   
 101   86   88  1   
 102   86   89  1   
 103   89   90  1   
 104   89   91  1   
 105   89  104  1   
 106   91   92  1   
 107   91   93  1   
 108   91   94  1   
 109   94   95  1   
 110   94   96  1   
 111   94  103  1   
 112   96   97  1   
 113   96   98  1   
 114   96   99  1   
 115   99  100  1   
 116   99  101  1   
 117   99  102  1   
 118  112  113  1   
 119  114  115  1   
 120  114  164  2   
 121  114  165  1   
 122  115  117  1   
 123  115  120  1   
 124  115  121  1   
 125  116  118  1   
 126  116  119  1   
 127  116  148  1   
 128  116  150  1   
 129  121  122  1   
 130  121  123  1   
 131  121  163  1   
 132  123  124  1   
 133  123  125  1   
 134  125  126  1   
 135  125  161  1   
 136  125  162  1   
 137  126  127  1   
 138  126  128  1   
 139  126  160  1   
 140  128  129  1   
 141  128  130  1   
 142  128  131  1   
 143  131  132  1   
 144  131  133  1   
 145  131  159  1   
 146  133  134  1   
 147  133  135  2   
 148  135  136  1   
 149  135  137  1   
 150  137  138  1   
 151  137  157  1   
 152  137  158  1   
 153  138  139  1   
 154  138  140  1   
 155  138  156  1   
 156  140  141  1   
 157  140  142  1   
 158  140  143  1   
 159  143  144  1   
 160  143  145  1   
 161  143  155  1   
 162  145  146  1   
 163  145  147  1   
 164  145  148  1   
 165  148  149  1   
 166  148  154  1   
 167  150  151  1   
 168  150  152  1   
 169  150  153  1   
 170  165  166  1   
 171  167  168  1   
 172  168  169  1   
 173  168  170  1   
 174  168  171  1   
 175  172  173  1   
 176  173  174  1   
 177  173  175  1   
 178  173  176  1   
 179  177  178  1   
 180  178  179  1   
 181  178  180  1   
 182  178  181  1   
 183  182  183  1   
 184  183  184  1   
 185  183  185  1   
 186  183  186  1   
 187  187  188  1   
 188  188  189  1   
 189  188  190  1   
 190  188  191  1   
 191  192  193  1   
 192  193  194  1   
 193  193  195  1   
 194  193  196  1   
 195  197  198  1   
 196  198  199  1   
 197  198  200  1   
 198  198  201  1   
 199  202  203  1   
 200  203  204  1   
 201  203  205  1   
 202  203  206  1   
 203  207  208  1   
 204  208  209  1   
 205  208  210  1   
 206  208  211  1   
 207  212  213  1   
 208  213  214  1   
 209  213  215  1   
 210  213  216  1   
 211  217  218  1   
 212  218  219  1   
 213  218  220  1   
 214  218  221  1   
 215  222  223  1   
 216  223  224  1   
 217  223  225  1   
 218  223  226  1   
 219  227  228  1   
 220  228  229  1   
 221  228  230  1   
 222  228  231  1   
 223  232  233  1   
 224  233  234  1   
 225  233  235  1   
 226  233  236  1   
 227  237  238  1   
 228  238  239  1   
 229  238  240  1   
 230  238  241  1   
 231  242  243  1   
 232  243  244  1   
 233  243  245  1   
 234  243  246  1   
 235  247  248  1   
 236  248  249  1   
 237  248  250  1   
 238  248  251  1   
 239  252  253  1   
 240  253  254  1   
 241  253  255  1   
 242  253  256  1   
 243  257  258  1   
 244  258  259  1   
 245  258  260  1   
 246  258  261  1   
 247  262  263  1   
 248  263  264  1   
 249  263  265  1   
 250  263  266  1   
 251  267  268  1   
 252  268  269  1   
 253  268  270  1   
 254  268  271  1   
 255  272  273  1   
 256  273  274  1   
 257  273  275  1   
 258  273  276  1   
 259  277  278  1   
 260  278  279  1   
 261  278  280  1   
 262  278  281  1   
 263  282  283  1   
 264  283  284  1   
 265  283  285  1   
 266  283  286  1   
 267  287  288  1   
 268  288  289  1   
 269  288  290  1   
 270  288  291  1   
 271  292  293  1   
 272  293  294  1   
 273  293  295  1   
 274  293  296  1   
 275  297  298  1   
 276  298  299  1   
 277  298  300  1   
 278  298  301  1   
 279  302  303  1   
 280  303  304  1   
 281  303  305  1   
 282  303  306  1   
 283  307  308  1   
 284  308  309  1   
 285  308  310  1   
 286  308  311  1   
 287  312  313  1   
 288  313  314  1   
 289  313  315  1   
 290  313  316  1   
 291  317  318  1   
 292  318  319  1   
 293  318  320  1   
 294  318  321  1   
 295  322  323  1   
 296  323  324  1   
 297  323  325  1   
 298  323  326  1   
 299  327  328  1   
 300  328  329  1   
 301  328  330  1   
 302  328  331  1   
 303  332  333  1   
 304  333  334  1   
 305  333  335  1   
 306  333  336  1   
 307  337  338  1   
 308  338  339  1   
 309  338  340  1   
 310  338  341  1   
 311  342  343  1   
 312  343  344  1   
 313  343  345  1   
 314  343  346  1   
 315  347  348  1   
 316  348  349  1   
 317  348  350  1   
 318  348  351  1   
 319  352  353  1   
 320  353  354  1   
 321  353  355  1   
 322  353  356  1   
 323  357  358  1   
 324  358  359  1   
 325  358  360  1   
 326  358  361  1   
 327  362  363  1   
 328  363  364  1   
 329  363  365  1   
 330  363  366  1   
 331  367  368  1   
 332  368  369  1   
 333  368  370  1   
 334  368  371  1   
 335  372  373  1   
 336  373  374  1   
 337  373  375  1   
 338  373  376  1   
 339  377  378  1   
 340  378  379  1   
 341  378  380  1   
 342  378  381  1   
 343  382  383  1   
 344  383  384  1   
 345  383  385  1   
 346  383  386  1   
 347  387  388  1   
 348  388  389  1   
 349  388  390  1   
 350  388  391  1   
 351  392  393  1   
 352  393  394  1   
 353  393  395  1   
 354  393  396  1   
 355  397  398  1   
 356  398  399  1   
 357  398  400  1   
 358  398  401  1   
 359  402  403  1   
 360  403  404  1   
 361  403  405  1   
 362  403  406  1   
 363  407  408  1   
 364  408  409  1   
 365  408  410  1   
 366  408  411  1   
 367  412  413  1   
 368  413  414  1   
 369  413  415  1   
 370  413  416  1   
 371  417  418  1   
 372  418  419  1   
 373  418  420  1   
 374  418  421  1   
 375  422  423  1   
 376  423  424  1   
 377  423  425  1   
 378  423  426  1   
 379  427  428  1   
 380  428  429  1   
 381  428  430  1   
 382  428  431  1   
 383  432  433  1   
 384  433  434  1   
 385  433  435  1   
 386  433  436  1   
 387  437  438  1   
 388  438  439  1   
 389  438  440  1   
 390  438  441  1   
 391  442  443  1   
 392  443  444  1   
 393  443  445  1   
 394  443  446  1   
 395  447  448  1   
 396  448  449  1   
 397  448  450  1   
 398  448  451  1   
 399  452  453  1   
 400  453  454  1   
 401  453  455  1   
 402  453  456  1   
 403  457  458  1   
 404  458  459  1   
 405  458  460  1   
 406  458  461  1   
 407  462  463  1   
 408  463  464  1   
 409  463  465  1   
 410  463  466  1   
 411  467  468  1   
 412  468  469  1   
 413  468  470  1   
 414  468  471  1   
 415  472  473  1   
 416  473  474  1   
 417  473  475  1   
 418  473  476  1   
 419  477  478  1   
 420  478  479  1   
 421  478  480  1   
 422  478  481  1   
 423  482  483  1   
 424  483  484  1   
 425  483  485  1   
 426  483  486  1   
 427  487  488  1   
 428  488  489  1   
 429  488  490  1   
 430  488  491  1   
 431  492  493  1   
 432  493  494  1   
 433  493  495  1   
 434  493  496  1   
 435  497  498  1   
 436  498  499  1   
 437  498  500  1   
 438  498  501  1   
 439  502  503  1   
 440  503  504  1   
 441  503  505  1   
 442  503  506  1   
 443  507  508  1   
 444  508  509  1   
 445  508  510  1   
 446  508  511  1   
 447  512  513  1   
 448  513  514  1   
 449  513  515  1   
 450  513  516  1   
 451  517  518  1   
 452  518  519  1   
 453  518  520  1   
 454  518  521  1   
 455  522  523  1   
 456  523  524  1   
 457  523  525  1   
 458  523  526  1   
 459  527  528  1   
 460  528  529  1   
 461  528  530  1   
 462  528  531  1   
 463  532  533  1   
 464  533  534  1   
 465  533  535  1   
 466  533  536  1   
 467  537  538  1   
 468  538  539  1   
 469  538  540  1   
 470  538  541  1   
 471  542  543  1   
 472  543  544  1   
 473  543  545  1   
 474  543  546  1   
 475  547  548  1   
 476  548  549  1   
 477  548  550  1   
 478  548  551  1   
 479  552  553  1   
 480  553  554  1   
 481  553  555  1   
 482  553  556  1   
 483  557  558  1   
 484  558  559  1   
 485  558  560  1   
 486  558  561  1   
 487  562  563  1   
 488  563  564  1   
 489  563  565  1   
 490  563  566  1   
 491  567  568  1   
 492  568  569  1   
 493  568  570  1   
 494  568  571  1   
 495  572  573  1   
 496  573  574  1   
 497  573  575  1   
 498  573  576  1   
 499  577  578  1   
 500  578  579  1   
 501  578  580  1   
 502  578  581  1   
 503  582  583  1   
 504  583  584  1   
 505  583  585  1   
 506  583  586  1   
 507  587  588  1   
 508  588  589  1   
 509  588  590  1   
 510  588  591  1   
 511  592  593  1   
 512  593  594  1   
 513  593  595  1   
 514  593  596  1   
 515  597  598  1   
 516  598  599  1   
 517  598  600  1   
 518  598  601  1   
 519  602  603  1   
 520  603  604  1   
 521  603  605  1   
 522  603  606  1   
 523  607  608  1   
 524  608  609  1   
 525  608  610  1   
 526  608  611  1   
 527  612  613  1   
 528  613  614  1   
 529  613  615  1   
 530  613  616  1   
 531  617  618  1   
 532  618  619  1   
 533  618  620  1   
 534  618  621  1   
 535  622  623  1   
 536  623  624  1   
 537  623  625  1   
 538  623  626  1   
 539  627  628  1   
 540  628  629  1   
 541  628  630  1   
 542  628  631  1   
 543  632  633  1   
 544  633  634  1   
 545  633  635  1   
 546  633  636  1   
 547  637  638  1   
 548  638  639  1   
 549  638  640  1   
 550  638  641  1   
 551  642  643  1   
 552  643  644  1   
 553  643  645  1   
 554  643  646  1   
 555  647  648  1   
 556  648  649  1   
 557  648  650  1   
 558  648  651  1   
 559  652  653  1   
 560  653  654  1   
 561  653  655  1   
 562  653  656  1   
 563  657  658  1   
 564  658  659  1   
 565  658  660  1   
 566  658  661  1   
 567  662  663  1   
 568  663  664  1   
 569  663  665  1   
 570  663  666  1   
 571  667  668  1   
 572  668  669  1   
 573  668  670  1   
 574  668  671  1   
 575  672  673  1   
 576  673  674  1   
 577  673  675  1   
 578  673  676  1   
 579  677  678  1   
 580  678  679  1   
 581  678  680  1   
 582  678  681  1   
 583  682  683  1   
 584  683  684  1   
 585  683  685  1   
 586  683  686  1   
 587  687  688  1   
 588  688  689  1   
 589  688  690  1   
 590  688  691  1   
 591  692  693  1   
 592  693  694  1   
 593  693  695  1   
 594  693  696  1   
 595  697  698  1   
 596  698  699  1   
 597  698  700  1   
 598  698  701  1   
 599  702  703  1   
 600  703  704  1   
 601  703  705  1   
 602  703  706  1   
 603  707  708  1   
 604  708  709  1   
 605  708  710  1   
 606  708  711  1   
 607  712  713  1   
 608  713  714  1   
 609  713  715  1   
 610  713  716  1   
 611  717  718  1   
 612  718  719  1   
 613  718  720  1   
 614  718  721  1   
 615  722  723  1   
 616  723  724  1   
 617  723  725  1   
 618  723  726  1   
 619  727  728  1   
 620  728  729  1   
 621  728  730  1   
 622  728  731  1   
 623  732  733  1   
 624  733  734  1   
 625  733  735  1   
 626  733  736  1   
 627  737  738  1   
 628  738  739  1   
 629  738  740  1   
 630  738  741  1   
 631  742  743  1   
 632  743  744  1   
 633  743  745  1   
 634  743  746  1   
 635  747  748  1   
 636  748  749  1   
 637  748  750  1   
 638  748  751  1   
 639  752  753  1   
 640  753  754  1   
 641  753  755  1   
 642  753  756  1   
 643  757  758  1   
 644  758  759  1   
 645  758  760  1   
 646  758  761  1   
 647  762  763  1   
 648  763  764  1   
 649  763  765  1   
 650  763  766  1   
 651  767  768  1   
 652  768  769  1   
 653  768  770  1   
 654  768  771  1   
 655  772  773  1   
 656  773  774  1   
 657  773  775  1   
 658  773  776  1   
 659  777  778  1   
 660  778  779  1   
 661  778  780  1   
 662  778  781  1   
 663  782  783  1   
 664  783  784  1   
 665  783  785  1   
 666  783  786  1   
 667  787  788  1   
 668  788  789  1   
 669  788  790  1   
 670  788  791  1   
 671  792  793  1   
 672  793  794  1   
 673  793  795  1   
 674  793  796  1   
 675  797  798  1   
 676  798  799  1   
 677  798  800  1   
 678  798  801  1   
 679  802  803  1   
 680  803  804  1   
 681  803  805  1   
 682  803  806  1   
 683  807  808  1   
 684  808  809  1   
 685  808  810  1   
 686  808  811  1   
 687  812  813  1   
 688  813  814  1   
 689  813  815  1   
 690  813  816  1   
 691  817  818  1   
 692  818  819  1   
 693  818  820  1   
 694  818  821  1   
 695  822  823  1   
 696  823  824  1   
 697  823  825  1   
 698  823  826  1   
 699  827  828  1   
 700  828  829  1   
 701  828  830  1   
 702  828  831  1   
 703  832  833  1   
 704  833  834  1   
 705  833  835  1   
 706  833  836  1   
 707  837  838  1   
 708  838  839  1   
 709  838  840  1   
 710  838  841  1   
 711  842  843  1   
 712  843  844  1   
 713  843  845  1   
 714  843  846  1   
 715  847  848  1   
 716  848  849  1   
 717  848  850  1   
 718  848  851  1   
 719  852  853  1   
 720  853  854  1   
 721  853  855  1   
 722  853  856  1   
 723  857  858  1   
 724  858  859  1   
 725  858  860  1   
 726  858  861  1   
 727  862  863  1   
 728  863  864  1   
 729  863  865  1   
 730  863  866  1   
 731  867  868  1   
 732  868  869  1   
 733  868  870  1   
 734  868  871  1   
 735  872  873  1   
 736  873  874  1   
 737  873  875  1   
 738  873  876  1   
 739  877  878  1   
 740  878  879  1   
 741  878  880  1   
 742  878  881  1   
 743  882  883  1   
 744  883  884  1   
 745  883  885  1   
 746  883  886  1   
 747  887  888  1   
 748  888  889  1   
 749  888  890  1   
 750  888  891  1   
 751  892  893  1   
 752  893  894  1   
 753  893  895  1   
 754  893  896  1   
 755  897  898  1   
 756  898  899  1   
 757  898  900  1   
 758  898  901  1   
 759  902  903  1   
 760  903  904  1   
 761  903  905  1   
 762  903  906  1   
 763  907  908  1   
 764  908  909  1   
 765  908  910  1   
 766  908  911  1   
 767  912  913  1   
 768  913  914  1   
 769  913  915  1   
 770  913  916  1   
 771  917  918  1   
 772  918  919  1   
 773  918  920  1   
 774  918  921  1   
 775  922  923  1   
 776  923  924  1   
 777  923  925  1   
 778  923  926  1   
 779  927  928  1   
 780  928  929  1   
 781  928  930  1   
 782  928  931  1   
 783  932  933  1   
 784  933  934  1   
 785  933  935  1   
 786  933  936  1   
 787  937  938  1   
 788  938  939  1   
 789  938  940  1   
 790  938  941  1   
 791  942  943  1   
 792  943  944  1   
 793  943  945  1   
 794  943  946  1   
 795  947  948  1   
 796  948  949  1   
 797  948  950  1   
 798  948  951  1   
 799  952  953  1   
 800  953  954  1   
 801  953  955  1   
 802  953  956  1   
 803  957  958  1   
 804  958  959  1   
 805  958  960  1   
 806  958  961  1   
 807  962  963  1   
 808  963  964  1   
 809  963  965  1   
 810  963  966  1   
 811  967  968  1   
 812  968  969  1   
 813  968  970  1   
 814  968  971  1   
 815  972  973  1   
 816  973  974  1   
 817  973  975  1   
 818  973  976  1   
 819  977  978  1   
 820  978  979  1   
 821  978  980  1   
 822  978  981  1   
 823  982  983  1   
 824  983  984  1   
 825  983  985  1   
 826  983  986  1   
 827  987  988  1   
 828  988  989  1   
 829  988  990  1   
 830  988  991  1   
 831  992  993  1   
 832  993  994  1   
 833  993  995  1   
 834  993  996  1   
 835  997  998  1   
 836  998  999  1   
 837  998 1000  1   
 838  998 1001  1   
 839 1002 1003  1   
 840 1003 1004  1   
 841 1003 1005  1   
 842 1003 1006  1   
 843 1007 1008  1   
 844 1008 1009  1   
 845 1008 1010  1   
 846 1008 1011  1   
 847 1012 1013  1   
 848 1013 1014  1   
 849 1013 1015  1   
 850 1013 1016  1   
 851 1017 1018  1   
 852 1018 1019  1   
 853 1018 1020  1   
 854 1018 1021  1   
 855 1022 1023  1   
 856 1023 1024  1   
 857 1023 1025  1   
 858 1023 1026  1   
 859 1027 1028  1   
 860 1028 1029  1   
 861 1028 1030  1   
 862 1028 1031  1   
 863 1032 1033  1   
 864 1033 1034  1   
 865 1033 1035  1   
 866 1033 1036  1   
 867 1037 1038  1   
 868 1038 1039  1   
 869 1038 1040  1   
 870 1038 1041  1   
 871 1042 1043  1   
 872 1043 1044  1   
 873 1043 1045  1   
 874 1043 1046  1   
 875 1047 1048  1   
 876 1048 1049  1   
 877 1048 1050  1   
 878 1048 1051  1   
 879 1052 1053  1   
 880 1053 1054  1   
 881 1053 1055  1   
 882 1053 1056  1   
 883 1057 1058  1   
 884 1058 1059  1   
 885 1058 1060  1   
 886 1058 1061  1   
 887 1062 1063  1   
 888 1063 1064  1   
 889 1063 1065  1   
 890 1063 1066  1   
 891 1067 1068  1   
 892 1068 1069  1   
 893 1068 1070  1   
 894 1068 1071  1   
 895 1072 1073  1   
 896 1073 1074  1   
 897 1073 1075  1   
 898 1073 1076  1   
 899 1077 1078  1   
 900 1078 1079  1   
 901 1078 1080  1   
 902 1078 1081  1   
 903 1082 1083  1   
 904 1083 1084  1   
 905 1083 1085  1   
 906 1083 1086  1   
 907 1087 1088  1   
 908 1088 1089  1   
 909 1088 1090  1   
 910 1088 1091  1   
 911 1092 1093  1   
 912 1093 1094  1   
 913 1093 1095  1   
 914 1093 1096  1   
 915 1097 1098  1   
 916 1098 1099  1   
 917 1098 1100  1   
 918 1098 1101  1   
 919 1102 1103  1   
 920 1103 1104  1   
 921 1103 1105  1   
 922 1103 1106  1   
 923 1107 1108  1   
 924 1108 1109  1   
 925 1108 1110  1   
 926 1108 1111  1   
 927 1112 1113  1   
 928 1113 1114  1   
 929 1113 1115  1   
 930 1113 1116  1   
 931 1117 1118  1   
 932 1118 1119  1   
 933 1118 1120  1   
 934 1118 1121  1   
 935 1122 1123  1   
 936 1123 1124  1   
 937 1123 1125  1   
 938 1123 1126  1   
 939 1127 1128  1   
 940 1128 1129  1   
 941 1128 1130  1   
 942 1128 1131  1   
 943 1132 1133  1   
 944 1133 1134  1   
 945 1133 1135  1   
 946 1133 1136  1   
 947 1137 1138  1   
 948 1138 1139  1   
 949 1138 1140  1   
 950 1138 1141  1   
 951 1142 1143  1   
 952 1143 1144  1   
 953 1143 1145  1   
 954 1143 1146  1   
 955 1147 1148  1   
 956 1148 1149  1   
 957 1148 1150  1   
 958 1148 1151  1   
 959 1152 1153  1   
 960 1153 1154  1   
 961 1153 1155  1   
 962 1153 1156  1   
 963 1157 1158  1   
 964 1158 1159  1   
 965 1158 1160  1   
 966 1158 1161  1   
 967 1162 1163  1   
 968 1163 1164  1   
 969 1163 1165  1   
 970 1163 1166  1   
 971 1167 1168  1   
 972 1168 1169  1   
 973 1168 1170  1   
 974 1168 1171  1   
 975 1172 1173  1   
 976 1173 1174  1   
 977 1173 1175  1   
 978 1173 1176  1   
 979 1177 1178  1   
 980 1178 1179  1   
 981 1178 1180  1   
 982 1178 1181  1   
 983 1182 1183  1   
 984 1183 1184  1   
 985 1183 1185  1   
 986 1183 1186  1   
 987 1187 1188  1   
 988 1188 1189  1   
 989 1188 1190  1   
 990 1188 1191  1   
 991 1192 1193  1   
 992 1193 1194  1   
 993 1193 1195  1   
 994 1193 1196  1   
 995 1197 1198  1   
 996 1198 1199  1   
 997 1198 1200  1   
 998 1198 1201  1   
 999 1202 1203  1   
1000 1203 1204  1   
1001 1203 1205  1   
1002 1203 1206  1   
1003 1207 1208  1   
1004 1208 1209  1   
1005 1208 1210  1   
1006 1208 1211  1   
1007 1212 1213  1   
1008 1213 1214  1   
1009 1213 1215  1   
1010 1213 1216  1   
1011 1217 1218  1   
1012 1218 1219  1   
1013 1218 1220  1   
1014 1218 1221  1   
1015 1222 1223  1   
1016 1223 1224  1   
1017 1223 1225  1   
1018 1223 1226  1   
1019 1227 1228  1   
1020 1228 1229  1   
1021 1228 1230  1   
1022 1228 1231  1   
1023 1232 1233  1   
1024 1233 1234  1   
1025 1233 1235  1   
1026 1233 1236  1   
1027 1237 1238  1   
1028 1238 1239  1   
1029 1238 1240  1   
1030 1238 1241  1   
1031 1242 1243  1   
1032 1243 1244  1   
1033 1243 1245  1   
1034 1243 1246  1   
1035 1247 1248  1   
1036 1248 1249  1   
1037 1248 1250  1   
1038 1248 1251  1   
1039 1252 1253  1   
1040 1253 1254  1   
1041 1253 1255  1   
1042 1253 1256  1   
1043 1257 1258  1   
1044 1258 1259  1   
1045 1258 1260  1   
1046 1258 1261  1   
1047 1262 1263  1   
1048 1263 1264  1   
1049 1263 1265  1   
1050 1263 1266  1   
1051 1267 1268  1   
1052 1268 1269  1   
1053 1268 1270  1   
1054 1268 1271  1   
1055 1272 1273  1   
1056 1273 1274  1   
1057 1273 1275  1   
1058 1273 1276  1   
1059 1277 1278  1   
1060 1278 1279  1   
1061 1278 1280  1   
1062 1278 1281  1   
1063 1282 1283  1   
1064 1283 1284  1   
1065 1283 1285  1   
1066 1283 1286  1   
1067 1287 1288  1   
1068 1288 1289  1   
1069 1288 1290  1   
1070 1288 1291  1   
1071 1292 1293  1   
1072 1293 1294  1   
1073 1293 1295  1   
1074 1293 1296  1   
1075 1297 1298  1   
1076 1298 1299  1   
1077 1298 1300  1   
1078 1298 1301  1   
1079 1302 1303  1   
1080 1303 1304  1   
1081 1303 1305  1   
1082 1303 1306  1   
1083 1307 1308  1   
1084 1308 1309  1   
1085 1308 1310  1   
1086 1308 1311  1   
1087 1312 1313  1   
1088 1313 1314  1   
1089 1313 1315  1   
1090 1313 1316  1   
1091 1317 1318  1   
1092 1318 1319  1   
1093 1318 1320  1   
1094 1318 1321  1   
1095 1322 1323  1   
1096 1323 1324  1   
1097 1323 1325  1   
1098 1323 1326  1   
1099 1327 1328  1   
1100 1328 1329  1   
1101 1328 1330  1   
1102 1328 1331  1   
1103 1332 1333  1   
1104 1333 1334  1   
1105 1333 1335  1   
1106 1333 1336  1   
1107 1337 1338  1   
1108 1338 1339  1   
1109 1338 1340  1   
1110 1338 1341  1   
1111 1342 1343  1   
1112 1343 1344  1   
1113 1343 1345  1   
1114 1343 1346  1   
1115 1347 1348  1   
1116 1348 1349  1   
1117 1348 1350  1   
1118 1348 1351  1   
1119 1352 1353  1   
1120 1353 1354  1   
1121 1353 1355  1   
1122 1353 1356  1   
1123 1357 1358  1   
1124 1358 1359  1   
1125 1358 1360  1   
1126 1358 1361  1   
1127 1362 1363  1   
1128 1363 1364  1   
1129 1363 1365  1   
1130 1363 1366  1   
1131 1367 1368  1   
1132 1368 1369  1   
1133 1368 1370  1   
1134 1368 1371  1   
1135 1372 1373  1   
1136 1373 1374  1   
1137 1373 1375  1   
1138 1373 1376  1   
1139 1377 1378  1   
1140 1378 1379  1   
1141 1378 1380  1   
1142 1378 1381  1   
1143 1382 1383  1   
1144 1383 1384  1   
1145 1383 1385  1   
1146 1383 1386  1   
1147 1387 1388  1   
1148 1388 1389  1   
1149 1388 1390  1   
1150 1388 1391  1   
1151 1392 1393  1   
1152 1393 1394  1   
1153 1393 1395  1   
1154 1393 1396  1   
1155 1397 1398  1   
1156 1398 1399  1   
1157 1398 1400  1   
1158 1398 1401  1   
1159 1402 1403  1   
1160 1403 1404  1   
1161 1403 1405  1   
1162 1403 1406  1   
1163 1407 1408  1   
1164 1408 1409  1   
1165 1408 1410  1   
1166 1408 1411  1   
1167 1412 1413  1   
1168 1413 1414  1   
1169 1413 1415  1   
1170 1413 1416  1   
1171 1417 1418  1   
1172 1418 1419  1   
1173 1418 1420  1   
1174 1418 1421  1   
1175 1422 1423  1   
1176 1423 1424  1   
1177 1423 1425  1   
1178 1423 1426  1   
1179 1427 1428  1   
1180 1428 1429  1   
1181 1428 1430  1   
1182 1428 1431  1   
1183 1432 1433  1   
1184 1433 1434  1   
1185 1433 1435  1   
1186 1433 1436  1   
1187 1437 1438  1   
1188 1438 1439  1   
1189 1438 1440  1   
1190 1438 1441  1   
1191 1442 1443  1   
1192 1443 1444  1   
1193 1443 1445  1   
1194 1443 1446  1   
1195 1447 1448  1   
1196 1448 1449  1   
1197 1448 1450  1   
1198 1448 1451  1   
1199 1452 1453  1   
1200 1453 1454  1   
1201 1453 1455  1   
1202 1453 1456  1   
1203 1457 1458  1   
1204 1458 1459  1   
1205 1458 1460  1   
1206 1458 1461  1   
1207 1462 1463  1   
1208 1463 1464  1   
1209 1463 1465  1   
1210 1463 1466  1   
1211 1467 1468  1   
1212 1468 1469  1   
1213 1468 1470  1   
1214 1468 1471  1   
1215 1472 1473  1   
1216 1473 1474  1   
1217 1473 1475  1   
1218 1473 1476  1   
1219 1477 1478  1   
1220 1478 1479  1   
1221 1478 1480  1   
1222 1478 1481  1   
1223 1482 1483  1   
1224 1483 1484  1   
1225 1483 1485  1   
1226 1483 1486  1   
1227 1487 1488  1   
1228 1488 1489  1   
1229 1488 1490  1   
1230 1488 1491  1   
1231 1492 1493  1   
1232 1493 1494  1   
1233 1493 1495  1   
1234 1493 1496  1   
1235 1497 1498  1   
1236 1498 1499  1   
1237 1498 1500  1   
1238 1498 1501  1   
1239 1502 1503  1   
1240 1503 1504  1   
1241 1503 1505  1   
1242 1503 1506  1   
1243 1507 1508  1   
1244 1508 1509  1   
1245 1508 1510  1   
1246 1508 1511  1   
1247 1512 1513  1   
1248 1513 1514  1   
1249 1513 1515  1   
1250 1513 1516  1   
1251 1517 1518  1   
1252 1518 1519  1   
1253 1518 1520  1   
1254 1518 1521  1   
1255 1522 1523  1   
1256 1523 1524  1   
1257 1523 1525  1   
1258 1523 1526  1   
1259 1527 1528  1   
1260 1528 1529  1   
1261 1528 1530  1   
1262 1528 1531  1   
1263 1532 1533  1   
1264 1533 1534  1   
1265 1533 1535  1   
1266 1533 1536  1   
1267 1537 1538  1   
1268 1538 1539  1   
1269 1538 1540  1   
1270 1538 1541  1   
1271 1542 1543  1   
1272 1543 1544  1   
1273 1543 1545  1   
1274 1543 1546  1   
1275 1547 1548  1   
1276 1548 1549  1   
1277 1548 1550  1   
1278 1548 1551  1   
1279 1552 1553  1   
1280 1553 1554  1   
1281 1553 1555  1   
1282 1553 1556  1   
1283 1557 1558  1   
1284 1558 1559  1   
1285 1558 1560  1   
1286 1558 1561  1   
1287 1562 1563  1   
1288 1563 1564  1   
1289 1563 1565  1   
1290 1563 1566  1   
1291 1567 1568  1   
1292 1568 1569  1   
1293 1568 1570  1   
1294 1568 1571  1   
1295 1572 1573  1   
1296 1573 1574  1   
1297 1573 1575  1   
1298 1573 1576  1   
1299 1577 1578  1   
1300 1578 1579  1   
1301 1578 1580  1   
1302 1578 1581  1   
1303 1582 1583  1   
1304 1583 1584  1   
1305 1583 1585  1   
1306 1583 1586  1   
1307 1587 1588  1   
1308 1588 1589  1   
1309 1588 1590  1   
1310 1588 1591  1   
1311 1592 1593  1   
1312 1593 1594  1   
1313 1593 1595  1   
1314 1593 1596  1   
1315 1597 1598  1   
1316 1598 1599  1   
1317 1598 1600  1   
1318 1598 1601  1   
1319 1602 1603  1   
1320 1603 1604  1   
1321 1603 1605  1   
1322 1603 1606  1   
1323 1607 1608  1   
1324 1608 1609  1   
1325 1608 1610  1   
1326 1608 1611  1   
1327 1612 1613  1   
1328 1613 1614  1   
1329 1613 1615  1   
1330 1613 1616  1   
1331 1617 1618  1   
1332 1618 1619  1   
1333 1618 1620  1   
1334 1618 1621  1   
1335 1622 1623  1   
1336 1623 1624  1   
1337 1623 1625  1   
1338 1623 1626  1   
1339 1627 1628  1   
1340 1628 1629  1   
1341 1628 1630  1   
1342 1628 1631  1   
1343 1632 1633  1   
1344 1633 1634  1   
1345 1633 1635  1   
1346 1633 1636  1   
1347 1637 1638  1   
1348 1638 1639  1   
1349 1638 1640  1   
1350 1638 1641  1   
1351 1642 1643  1   
1352 1643 1644  1   
1353 1643 1645  1   
1354 1643 1646  1   
1355 1647 1648  1   
1356 1648 1649  1   
1357 1648 1650  1   
1358 1648 1651  1   
1359 1652 1653  1   
1360 1653 1654  1   
1361 1653 1655  1   
1362 1653 1656  1   
1363 1657 1658  1   
1364 1658 1659  1   
1365 1658 1660  1   
1366 1658 1661  1   
1367 1662 1663  1   
1368 1663 1664  1   
1369 1663 1665  1   
1370 1663 1666  1   
1371 1667 1668  1   
1372 1668 1669  1   
1373 1668 1670  1   
1374 1668 1671  1   
1375 1672 1673  1   
1376 1673 1674  1   
1377 1673 1675  1   
1378 1673 1676  1   
1379 1677 1678  1   
1380 1678 1679  1   
1381 1678 1680  1   
1382 1678 1681  1   
1383 1682 1683  1   
1384 1683 1684  1   
1385 1683 1685  1   
1386 1683 1686  1   
1387 1687 1688  1   
1388 1688 1689  1   
1389 1688 1690  1   
1390 1688 1691  1   
1391 1692 1693  1   
1392 1693 1694  1   
1393 1693 1695  1   
1394 1693 1696  1   
1395 1697 1698  1   
1396 1698 1699  1   
1397 1698 1700  1   
1398 1698 1701  1   
1399 1702 1703  1   
1400 1703 1704  1   
1401 1703 1705  1   
1402 1703 1706  1   
1403 1707 1708  1   
1404 1708 1709  1   
1405 1708 1710  1   
1406 1708 1711  1   
1407 1712 1713  1   
1408 1713 1714  1   
1409 1713 1715  1   
1410 1713 1716  1   
1411 1717 1718  1   
1412 1718 1719  1   
1413 1718 1720  1   
1414 1718 1721  1   
1415 1722 1723  1   
1416 1723 1724  1   
1417 1723 1725  1   
1418 1723 1726  1   
1419 1727 1728  1   
1420 1728 1729  1   
1421 1728 1730  1   
1422 1728 1731  1   
1423 1732 1733  1   
1424 1733 1734  1   
1425 1733 1735  1   
1426 1733 1736  1   
1427 1737 1738  1   
1428 1738 1739  1   
1429 1738 1740  1   
1430 1738 1741  1   
1431 1742 1743  1   
1432 1743 1744  1   
1433 1743 1745  1   
1434 1743 1746  1   
1435 1747 1748  1   
1436 1748 1749  1   
1437 1748 1750  1   
1438 1748 1751  1   
1439 1752 1753  1   
1440 1753 1754  1   
1441 1753 1755  1   
1442 1753 1756  1   
1443 1757 1758  1   
1444 1758 1759  1   
1445 1758 1760  1   
1446 1758 1761  1   
1447 1762 1763  1   
1448 1763 1764  1   
1449 1763 1765  1   
1450 1763 1766  1   
1451 1767 1768  1   
1452 1768 1769  1   
1453 1768 1770  1   
1454 1768 1771  1   
1455 1772 1773  1   
1456 1773 1774  1   
1457 1773 1775  1   
1458 1773 1776  1   
1459 1777 1778  1   
1460 1778 1779  1   
1461 1778 1780  1   
1462 1778 1781  1   
1463 1782 1783  1   
1464 1783 1784  1   
1465 1783 1785  1   
1466 1783 1786  1   
1467 1787 1788  1   
1468 1788 1789  1   
1469 1788 1790  1   
1470 1788 1791  1   
1471 1792 1793  1   
1472 1793 1794  1   
1473 1793 1795  1   
1474 1793 1796  1   
1475 1797 1798  1   
1476 1798 1799  1   
1477 1798 1800  1   
1478 1798 1801  1   
1479 1802 1803  1   
1480 1803 1804  1   
1481 1803 1805  1   
1482 1803 1806  1   
1483 1807 1808  1   
1484 1808 1809  1   
1485 1808 1810  1   
1486 1808 1811  1   
1487 1812 1813  1   
1488 1813 1814  1   
1489 1813 1815  1   
1490 1813 1816  1   
1491 1817 1818  1   
1492 1818 1819  1   
1493 1818 1820  1   
1494 1818 1821  1   
1495 1822 1823  1   
1496 1823 1824  1   
1497 1823 1825  1   
1498 1823 1826  1   
1499 1827 1828  1   
1500 1828 1829  1   
1501 1828 1830  1   
1502 1828 1831  1   
1503 1832 1833  1   
1504 1833 1834  1   
1505 1833 1835  1   
1506 1833 1836  1   
1507 1837 1838  1   
1508 1838 1839  1   
1509 1838 1840  1   
1510 1838 1841  1   
1511 1842 1843  1   
1512 1843 1844  1   
1513 1843 1845  1   
1514 1843 1846  1   
1515 1847 1848  1   
1516 1848 1849  1   
1517 1848 1850  1   
1518 1848 1851  1   
1519 1852 1853  1   
1520 1853 1854  1   
1521 1853 1855  1   
1522 1853 1856  1   
1523 1857 1858  1   
1524 1858 1859  1   
1525 1858 1860  1   
1526 1858 1861  1   
1527 1862 1863  1   
1528 1863 1864  1   
1529 1863 1865  1   
1530 1863 1866  1   
1531 1867 1868  1   
1532 1868 1869  1   
1533 1868 1870  1   
1534 1868 1871  1   
1535 1872 1873  1   
1536 1873 1874  1   
1537 1873 1875  1   
1538 1873 1876  1   
1539 1877 1878  1   
1540 1878 1879  1   
1541 1878 1880  1   
1542 1878 1881  1   
1543 1882 1883  1   
1544 1883 1884  1   
1545 1883 1885  1   
1546 1883 1886  1   
1547 1887 1888  1   
1548 1888 1889  1   
1549 1888 1890  1   
1550 1888 1891  1   
1551 1892 1893  1   
1552 1893 1894  1   
1553 1893 1895  1   
1554 1893 1896  1   
1555 1897 1898  1   
1556 1898 1899  1   
1557 1898 1900  1   
1558 1898 1901  1   
1559 1902 1903  1   
1560 1903 1904  1   
1561 1903 1905  1   
1562 1903 1906  1   
1563 1907 1908  1   
1564 1908 1909  1   
1565 1908 1910  1   
1566 1908 1911  1   
1567 1912 1913  1   
1568 1913 1914  1   
1569 1913 1915  1   
1570 1913 1916  1   
1571 1917 1918  1   
1572 1918 1919  1   
1573 1918 1920  1   
1574 1918 1921  1   
1575 1922 1923  1   
1576 1923 1924  1   
1577 1923 1925  1   
1578 1923 1926  1   
1579 1927 1928  1   
1580 1928 1929  1   
1581 1928 1930  1   
1582 1928 1931  1   
1583 1932 1933  1   
1584 1933 1934  1   
1585 1933 1935  1   
1586 1933 1936  1   
1587 1937 1938  1   
1588 1938 1939  1   
1589 1938 1940  1   
1590 1938 1941  1   
1591 1942 1943  1   
1592 1943 1944  1   
1593 1943 1945  1   
1594 1943 1946  1   
1595 1947 1948  1   
1596 1948 1949  1   
1597 1948 1950  1   
1598 1948 1951  1   
1599 1952 1953  1   
1600 1953 1954  1   
1601 1953 1955  1   
1602 1953 1956  1   
1603 1957 1958  1   
1604 1958 1959  1   
1605 1958 1960  1   
1606 1958 1961  1   
1607 1962 1963  1   
1608 1963 1964  1   
1609 1963 1965  1   
1610 1963 1966  1   
1611 1967 1968  1   
1612 1968 1969  1   
1613 1968 1970  1   
1614 1968 1971  1   
1615 1972 1973  1   
1616 1973 1974  1   
1617 1973 1975  1   
1618 1973 1976  1   
1619 1977 1978  1   
1620 1978 1979  1   
1621 1978 1980  1   
1622 1978 1981  1   
1623 1982 1983  1   
1624 1983 1984  1   
1625 1983 1985  1   
1626 1983 1986  1   
1627 1987 1988  1   
1628 1988 1989  1   
1629 1988 1990  1   
1630 1988 1991  1   
1631 1992 1993  1   
1632 1993 1994  1   
1633 1993 1995  1   
1634 1993 1996  1   
1635 1997 1998  1   
1636 1998 1999  1   
1637 1998 2000  1   
1638 1998 2001  1   
1639 2002 2003  1   
1640 2003 2004  1   
1641 2003 2005  1   
1642 2003 2006  1   
1643 2007 2008  1   
1644 2008 2009  1   
1645 2008 2010  1   
1646 2008 2011  1   
1647 2012 2013  1   
1648 2013 2014  1   
1649 2013 2015  1   
1650 2013 2016  1   
1651 2017 2018  1   
1652 2018 2019  1   
1653 2018 2020  1   
1654 2018 2021  1   
1655 2022 2023  1   
1656 2023 2024  1   
1657 2023 2025  1   
1658 2023 2026  1   
1659 2027 2028  1   
1660 2028 2029  1   
1661 2028 2030  1   
1662 2028 2031  1   
1663 2032 2033  1   
1664 2033 2034  1   
1665 2033 2035  1   
1666 2033 2036  1   
1667 2037 2038  1   
1668 2038 2039  1   
1669 2038 2040  1   
1670 2038 2041  1   
1671 2042 2043  1   
1672 2043 2044  1   
1673 2043 2045  1   
1674 2043 2046  1   
1675 2047 2048  1   
1676 2048 2049  1   
1677 2048 2050  1   
1678 2048 2051  1   
1679 2052 2053  1   
1680 2053 2054  1   
1681 2053 2055  1   
1682 2053 2056  1   
1683 2057 2058  1   
1684 2058 2059  1   
1685 2058 2060  1   
1686 2058 2061  1   
1687 2062 2063  1   
1688 2063 2064  1   
1689 2063 2065  1   
1690 2063 2066  1   
1691 2067 2068  1   
1692 2068 2069  1   
1693 2068 2070  1   
1694 2068 2071  1   
1695 2072 2073  1   
1696 2073 2074  1   
1697 2073 2075  1   
1698 2073 2076  1   
1699 2077 2078  1   
1700 2078 2079  1   
1701 2078 2080  1   
1702 2078 2081  1   
1703 2082 2083  1   
1704 2083 2084  1   
1705 2083 2085  1   
1706 2083 2086  1   
1707 2087 2088  1   
1708 2088 2089  1   
1709 2088 2090  1   
1710 2088 2091  1   
1711 2092 2093  1   
1712 2093 2094  1   
1713 2093 2095  1   
1714 2093 2096  1   
1715 2097 2098  1   
1716 2098 2099  1   
1717 2098 2100  1   
1718 2098 2101  1   
1719 2102 2103  1   
1720 2103 2104  1   
1721 2103 2105  1   
1722 2103 2106  1   
1723 2107 2108  1   
1724 2108 2109  1   
1725 2108 2110  1   
1726 2108 2111  1   
1727 2112 2113  1   
1728 2113 2114  1   
1729 2113 2115  1   
1730 2113 2116  1   
1731 2117 2118  1   
1732 2118 2119  1   
1733 2118 2120  1   
1734 2118 2121  1   
1735 2122 2123  1   
1736 2123 2124  1   
1737 2123 2125  1   
1738 2123 2126  1   
1739 2127 2128  1   
1740 2128 2129  1   
1741 2128 2130  1   
1742 2128 2131  1   
1743 2132 2133  1   
1744 2133 2134  1   
1745 2133 2135  1   
1746 2133 2136  1   
1747 2137 2138  1   
1748 2138 2139  1   
1749 2138 2140  1   
1750 2138 2141  1   
1751 2142 2143  1   
1752 2143 2144  1   
1753 2143 2145  1   
1754 2143 2146  1   
1755 2147 2148  1   
1756 2148 2149  1   
1757 2148 2150  1   
1758 2148 2151  1   
1759 2152 2153  1   
1760 2153 2154  1   
1761 2153 2155  1   
1762 2153 2156  1   
1763 2157 2158  1   
1764 2158 2159  1   
1765 2158 2160  1   
1766 2158 2161  1   
1767 2162 2163  1   
1768 2163 2164  1   
1769 2163 2165  1   
1770 2163 2166  1   
1771 2167 2168  1   
1772 2168 2169  1   
1773 2168 2170  1   
1774 2168 2171  1   
1775 2172 2173  1   
1776 2173 2174  1   
1777 2173 2175  1   
1778 2173 2176  1   
1779 2177 2178  1   
1780 2178 2179  1   
1781 2178 2180  1   
1782 2178 2181  1   
1783 2182 2183  1   
1784 2183 2184  1   
1785 2183 2185  1   
1786 2183 2186  1   
1787 2187 2188  1   
1788 2188 2189  1   
1789 2188 2190  1   
1790 2188 2191  1   
1791 2192 2193  1   
1792 2193 2194  1   
1793 2193 2195  1   
1794 2193 2196  1   
1795 2197 2198  1   
1796 2198 2199  1   
1797 2198 2200  1   
1798 2198 2201  1   
1799 2202 2203  1   
1800 2203 2204  1   
1801 2203 2205  1   
1802 2203 2206  1   
1803 2207 2208  1   
1804 2208 2209  1   
1805 2208 2210  1   
1806 2208 2211  1   
@<TRIPOS>SUBSTRUCTURE
  1 ****   86 GROUP 4 Q1 **** 0
  2 CCL4  168 GROUP 4 Q2 **** 0
  3 CCL4  173 GROUP 4 Q2 **** 0
  4 CCL4  178 GROUP 4 Q2 **** 0
  5 CCL4  183 GROUP 4 Q2 **** 0
  6 CCL4  188 GROUP 4 Q2 **** 0
  7 CCL4  193 GROUP 4 Q2 **** 0
  8 CCL4  198 GROUP 4 Q2 **** 0
  9 CCL4  203 GROUP 4 Q2 **** 0
 10 CCL4  208 GROUP 4 Q2 **** 0
 11 CCL4  213 GROUP 4 Q2 **** 0
 12 CCL4  218 GROUP 4 Q2 **** 0
 13 CCL4  223 GROUP 4 Q2 **** 0
 14 CCL4  228 GROUP 4 Q2 **** 0
 15 CCL4  233 GROUP 4 Q2 **** 0
 16 CCL4  238 GROUP 4 Q2 **** 0
 17 CCL4  243 GROUP 4 Q2 **** 0
 18 CCL4  248 GROUP 4 Q2 **** 0
 19 CCL4  253 GROUP 4 Q2 **** 0
 20 CCL4  258 GROUP 4 Q2 **** 0
 21 CCL4  263 GROUP 4 Q2 **** 0
 22 CCL4  268 GROUP 4 Q2 **** 0
 23 CCL4  273 GROUP 4 Q2 **** 0
 24 CCL4  278 GROUP 4 Q2 **** 0
 25 CCL4  283 GROUP 4 Q2 **** 0
 26 CCL4  288 GROUP 4 Q2 **** 0
 27 CCL4  293 GROUP 4 Q2 **** 0
 28 CCL4  298 GROUP 4 Q2 **** 0
 29 CCL4  303 GROUP 4 Q2 **** 0
 30 CCL4  308 GROUP 4 Q2 **** 0
 31 CCL4  313 GROUP 4 Q2 **** 0
 32 CCL4  318 GROUP 4 Q2 **** 0
 33 CCL4  323 GROUP 4 Q2 **** 0
 34 CCL4  328 GROUP 4 Q2 **** 0
 35 CCL4  333 GROUP 4 Q2 **** 0
 36 CCL4  338 GROUP 4 Q2 **** 0
 37 CCL4  343 GROUP 4 Q2 **** 0
 38 CCL4  348 GROUP 4 Q2 **** 0
 39 CCL4  353 GROUP 4 Q2 **** 0
 40 CCL4  358 GROUP 4 Q2 **** 0
 41 CCL4  363 GROUP 4 Q2 **** 0
 42 CCL4  368 GROUP 4 Q2 **** 0
 43 CCL4  373 GROUP 4 Q2 **** 0
 44 CCL4  378 GROUP 4 Q2 **** 0
 45 CCL4  383 GROUP 4 Q2 **** 0
 46 CCL4  388 GROUP 4 Q2 **** 0
 47 CCL4  393 GROUP 4 Q2 **** 0
 48 CCL4  398 GROUP 4 Q2 **** 0
 49 CCL4  403 GROUP 4 Q2 **** 0
 50 CCL4  408 GROUP 4 Q2 **** 0
 51 CCL4  413 GROUP 4 Q2 **** 0
 52 CCL4  418 GROUP 4 Q2 **** 0
 53 CCL4  423 GROUP 4 Q2 **** 0
 54 CCL4  428 GROUP 4 Q2 **** 0
 55 CCL4  433 GROUP 4 Q2 **** 0
 56 CCL4  438 GROUP 4 Q2 **** 0
 57 CCL4  443 GROUP 4 Q2 **** 0
 58 CCL4  448 GROUP 4 Q2 **** 0
 59 CCL4  453 GROUP 4 Q2 **** 0
 60 CCL4  458 GROUP 4 Q2 **** 0
 61 CCL4  463 GROUP 4 Q2 **** 0
 62 CCL4  468 GROUP 4 Q2 **** 0
 63 CCL4  473 GROUP 4 Q2 **** 0
 64 CCL4  478 GROUP 4 Q2 **** 0
 65 CCL4  483 GROUP 4 Q2 **** 0
 66 CCL4  488 GROUP 4 Q2 **** 0
 67 CCL4  493 GROUP 4 Q2 **** 0
 68 CCL4  498 GROUP 4 Q2 **** 0
 69 CCL4  503 GROUP 4 Q2 **** 0
 70 CCL4  508 GROUP 4 Q2 **** 0
 71 CCL4  513 GROUP 4 Q2 **** 0
 72 CCL4  518 GROUP 4 Q2 **** 0
 73 CCL4  523 GROUP 4 Q2 **** 0
 74 CCL4  528 GROUP 4 Q2 **** 0
 75 CCL4  533 GROUP 4 Q2 **** 0
 76 CCL4  538 GROUP 4 Q2 **** 0
 77 CCL4  543 GROUP 4 Q2 **** 0
 78 CCL4  548 GROUP 4 Q2 **** 0
 79 CCL4  553 GROUP 4 Q2 **** 0
 80 CCL4  558 GROUP 4 Q2 **** 0
 81 CCL4  563 GROUP 4 Q2 **** 0
 82 CCL4  568 GROUP 4 Q2 **** 0
 83 CCL4  573 GROUP 4 Q2 **** 0
 84 CCL4  578 GROUP 4 Q2 **** 0
 85 CCL4  583 GROUP 4 Q2 **** 0
 86 CCL4  588 GROUP 4 Q2 **** 0
 87 CCL4  593 GROUP 4 Q2 **** 0
 88 CCL4  598 GROUP 4 Q2 **** 0
 89 CCL4  603 GROUP 4 Q2 **** 0
 90 CCL4  608 GROUP 4 Q2 **** 0
 91 CCL4  613 GROUP 4 Q2 **** 0
 92 CCL4  618 GROUP 4 Q2 **** 0
 93 CCL4  623 GROUP 4 Q2 **** 0
 94 CCL4  628 GROUP 4 Q2 **** 0
 95 CCL4  633 GROUP 4 Q2 **** 0
 96 CCL4  638 GROUP 4 Q2 **** 0
 97 CCL4  643 GROUP 4 Q2 **** 0
 98 CCL4  648 GROUP 4 Q2 **** 0
 99 CCL4  653 GROUP 4 Q2 **** 0
100 CCL4  658 GROUP 4 Q2 **** 0
101 CCL4  663 GROUP 4 Q2 **** 0
102 CCL4  668 GROUP 4 Q2 **** 0
103 CCL4  673 GROUP 4 Q2 **** 0
104 CCL4  678 GROUP 4 Q2 **** 0
105 CCL4  683 GROUP 4 Q2 **** 0
106 CCL4  688 GROUP 4 Q2 **** 0
107 CCL4  693 GROUP 4 Q2 **** 0
108 CCL4  698 GROUP 4 Q2 **** 0
109 CCL4  703 GROUP 4 Q2 **** 0
110 CCL4  708 GROUP 4 Q2 **** 0
111 CCL4  713 GROUP 4 Q2 **** 0
112 CCL4  718 GROUP 4 Q2 **** 0
113 CCL4  723 GROUP 4 Q2 **** 0
114 CCL4  728 GROUP 4 Q2 **** 0
115 CCL4  733 GROUP 4 Q2 **** 0
116 CCL4  738 GROUP 4 Q2 **** 0
117 CCL4  743 GROUP 4 Q2 **** 0
118 CCL4  748 GROUP 4 Q2 **** 0
119 CCL4  753 GROUP 4 Q2 **** 0
120 CCL4  758 GROUP 4 Q2 **** 0
121 CCL4  763 GROUP 4 Q2 **** 0
122 CCL4  768 GROUP 4 Q2 **** 0
123 CCL4  773 GROUP 4 Q2 **** 0
124 CCL4  778 GROUP 4 Q2 **** 0
125 CCL4  783 GROUP 4 Q2 **** 0
126 CCL4  788 GROUP 4 Q2 **** 0
127 CCL4  793 GROUP 4 Q2 **** 0
128 CCL4  798 GROUP 4 Q2 **** 0
129 CCL4  803 GROUP 4 Q2 **** 0
130 CCL4  808 GROUP 4 Q2 **** 0
131 CCL4  813 GROUP 4 Q2 **** 0
132 CCL4  818 GROUP 4 Q2 **** 0
133 CCL4  823 GROUP 4 Q2 **** 0
134 CCL4  828 GROUP 4 Q2 **** 0
135 CCL4  833 GROUP 4 Q2 **** 0
136 CCL4  838 GROUP 4 Q2 **** 0
137 CCL4  843 GROUP 4 Q2 **** 0
138 CCL4  848 GROUP 4 Q2 **** 0
139 CCL4  853 GROUP 4 Q2 **** 0
140 CCL4  858 GROUP 4 Q2 **** 0
141 CCL4  863 GROUP 4 Q2 **** 0
142 CCL4  868 GROUP 4 Q2 **** 0
143 CCL4  873 GROUP 4 Q2 **** 0
144 CCL4  878 GROUP 4 Q2 **** 0
145 CCL4  883 GROUP 4 Q2 **** 0
146 CCL4  888 GROUP 4 Q2 **** 0
147 CCL4  893 GROUP 4 Q2 **** 0
148 CCL4  898 GROUP 4 Q2 **** 0
149 CCL4  903 GROUP 4 Q2 **** 0
150 CCL4  908 GROUP 4 Q2 **** 0
151 CCL4  913 GROUP 4 Q2 **** 0
152 CCL4  918 GROUP 4 Q2 **** 0
153 CCL4  923 GROUP 4 Q2 **** 0
154 CCL4  928 GROUP 4 Q2 **** 0
155 CCL4  933 GROUP 4 Q2 **** 0
156 CCL4  938 GROUP 4 Q2 **** 0
157 CCL4  943 GROUP 4 Q2 **** 0
158 CCL4  948 GROUP 4 Q2 **** 0
159 CCL4  953 GROUP 4 Q2 **** 0
160 CCL4  958 GROUP 4 Q2 **** 0
161 CCL4  963 GROUP 4 Q2 **** 0
162 CCL4  968 GROUP 4 Q2 **** 0
163 CCL4  973 GROUP 4 Q2 **** 0
164 CCL4  978 GROUP 4 Q2 **** 0
165 CCL4  983 GROUP 4 Q2 **** 0
166 CCL4  988 GROUP 4 Q2 **** 0
167 CCL4  993 GROUP 4 Q2 **** 0
168 CCL4  998 GROUP 4 Q2 **** 0
169 CCL4 1003 GROUP 4 Q2 **** 0
170 CCL4 1008 GROUP 4 Q2 **** 0
171 CCL4 1013 GROUP 4 Q2 **** 0
172 CCL4 1018 GROUP 4 Q2 **** 0
173 CCL4 1023 GROUP 4 Q2 **** 0
174 CCL4 1028 GROUP 4 Q2 **** 0
175 CCL4 1033 GROUP 4 Q2 **** 0
176 CCL4 1038 GROUP 4 Q2 **** 0
177 CCL4 1043 GROUP 4 Q2 **** 0
178 CCL4 1048 GROUP 4 Q2 **** 0
179 CCL4 1053 GROUP 4 Q2 **** 0
180 CCL4 1058 GROUP 4 Q2 **** 0
181 CCL4 1063 GROUP 4 Q2 **** 0
182 CCL4 1068 GROUP 4 Q2 **** 0
183 CCL4 1073 GROUP 4 Q2 **** 0
184 CCL4 1078 GROUP 4 Q2 **** 0
185 CCL4 1083 GROUP 4 Q2 **** 0
186 CCL4 1088 GROUP 4 Q2 **** 0
187 CCL4 1093 GROUP 4 Q2 **** 0
188 CCL4 1098 GROUP 4 Q2 **** 0
189 CCL4 1103 GROUP 4 Q2 **** 0
190 CCL4 1108 GROUP 4 Q2 **** 0
191 CCL4 1113 GROUP 4 Q2 **** 0
192 CCL4 1118 GROUP 4 Q2 **** 0
193 CCL4 1123 GROUP 4 Q2 **** 0
194 CCL4 1128 GROUP 4 Q2 **** 0
195 CCL4 1133 GROUP 4 Q2 **** 0
196 CCL4 1138 GROUP 4 Q2 **** 0
197 CCL4 1143 GROUP 4 Q2 **** 0
198 CCL4 1148 GROUP 4 Q2 **** 0
199 CCL4 1153 GROUP 4 Q2 **** 0
200 CCL4 1158 GROUP 4 Q2 **** 0
201 CCL4 1163 GROUP 4 Q2 **** 0
202 CCL4 1168 GROUP 4 Q2 **** 0
203 CCL4 1173 GROUP 4 Q2 **** 0
204 CCL4 1178 GROUP 4 Q2 **** 0
205 CCL4 1183 GROUP 4 Q2 **** 0
206 CCL4 1188 GROUP 4 Q2 **** 0
207 CCL4 1193 GROUP 4 Q2 **** 0
208 CCL4 1198 GROUP 4 Q2 **** 0
209 CCL4 1203 GROUP 4 Q2 **** 0
210 CCL4 1208 GROUP 4 Q2 **** 0
211 CCL4 1213 GROUP 4 Q2 **** 0
212 CCL4 1218 GROUP 4 Q2 **** 0
213 CCL4 1223 GROUP 4 Q2 **** 0
214 CCL4 1228 GROUP 4 Q2 **** 0
215 CCL4 1233 GROUP 4 Q2 **** 0
216 CCL4 1238 GROUP 4 Q2 **** 0
217 CCL4 1243 GROUP 4 Q2 **** 0
218 CCL4 1248 GROUP 4 Q2 **** 0
219 CCL4 1253 GROUP 4 Q2 **** 0
220 CCL4 1258 GROUP 4 Q2 **** 0
221 CCL4 1263 GROUP 4 Q2 **** 0
222 CCL4 1268 GROUP 4 Q2 **** 0
223 CCL4 1273 GROUP 4 Q2 **** 0
224 CCL4 1278 GROUP 4 Q2 **** 0
225 CCL4 1283 GROUP 4 Q2 **** 0
226 CCL4 1288 GROUP 4 Q2 **** 0
227 CCL4 1293 GROUP 4 Q2 **** 0
228 CCL4 1298 GROUP 4 Q2 **** 0
229 CCL4 1303 GROUP 4 Q2 **** 0
230 CCL4 1308 GROUP 4 Q2 **** 0
231 CCL4 1313 GROUP 4 Q2 **** 0
232 CCL4 1318 GROUP 4 Q2 **** 0
233 CCL4 1323 GROUP 4 Q2 **** 0
234 CCL4 1328 GROUP 4 Q2 **** 0
235 CCL4 1333 GROUP 4 Q2 **** 0
236 CCL4 1338 GROUP 4 Q2 **** 0
237 CCL4 1343 GROUP 4 Q2 **** 0
238 CCL4 1348 GROUP 4 Q2 **** 0
239 CCL4 1353 GROUP 4 Q2 **** 0
240 CCL4 1358 GROUP 4 Q2 **** 0
241 CCL4 1363 GROUP 4 Q2 **** 0
242 CCL4 1368 GROUP 4 Q2 **** 0
243 CCL4 1373 GROUP 4 Q2 **** 0
244 CCL4 1378 GROUP 4 Q2 **** 0
245 CCL4 1383 GROUP 4 Q2 **** 0
246 CCL4 1388 GROUP 4 Q2 **** 0
247 CCL4 1393 GROUP 4 Q2 **** 0
248 CCL4 1398 GROUP 4 Q2 **** 0
249 CCL4 1403 GROUP 4 Q2 **** 0
250 CCL4 1408 GROUP 4 Q2 **** 0
251 CCL4 1413 GROUP 4 Q2 **** 0
252 CCL4 1418 GROUP 4 Q2 **** 0
253 CCL4 1423 GROUP 4 Q2 **** 0
254 CCL4 1428 GROUP 4 Q2 **** 0
255 CCL4 1433 GROUP 4 Q2 **** 0
256 CCL4 1438 GROUP 4 Q2 **** 0
257 CCL4 1443 GROUP 4 Q2 **** 0
258 CCL4 1448 GROUP 4 Q2 **** 0
259 CCL4 1453 GROUP 4 Q2 **** 0
260 CCL4 1458 GROUP 4 Q2 **** 0
261 CCL4 1463 GROUP 4 Q2 **** 0
262 CCL4 1468 GROUP 4 Q2 **** 0
263 CCL4 1473 GROUP 4 Q2 **** 0
264 CCL4 1478 GROUP 4 Q2 **** 0
265 CCL4 1483 GROUP 4 Q2 **** 0
266 CCL4 1488 GROUP 4 Q2 **** 0
267 CCL4 1493 GROUP 4 Q2 **** 0
268 CCL4 1498 GROUP 4 Q2 **** 0
269 CCL4 1503 GROUP 4 Q2 **** 0
270 CCL4 1508 GROUP 4 Q2 **** 0
271 CCL4 1513 GROUP 4 Q2 **** 0
272 CCL4 1518 GROUP 4 Q2 **** 0
273 CCL4 1523 GROUP 4 Q2 **** 0
274 CCL4 1528 GROUP 4 Q2 **** 0
275 CCL4 1533 GROUP 4 Q2 **** 0
276 CCL4 1538 GROUP 4 Q2 **** 0
277 CCL4 1543 GROUP 4 Q2 **** 0
278 CCL4 1548 GROUP 4 Q2 **** 0
279 CCL4 1553 GROUP 4 Q2 **** 0
280 CCL4 1558 GROUP 4 Q2 **** 0
281 CCL4 1563 GROUP 4 Q2 **** 0
282 CCL4 1568 GROUP 4 Q2 **** 0
283 CCL4 1573 GROUP 4 Q2 **** 0
284 CCL4 1578 GROUP 4 Q2 **** 0
285 CCL4 1583 GROUP 4 Q2 **** 0
286 CCL4 1588 GROUP 4 Q2 **** 0
287 CCL4 1593 GROUP 4 Q2 **** 0
288 CCL4 1598 GROUP 4 Q2 **** 0
289 CCL4 1603 GROUP 4 Q2 **** 0
290 CCL4 1608 GROUP 4 Q2 **** 0
291 CCL4 1613 GROUP 4 Q2 **** 0
292 CCL4 1618 GROUP 4 Q2 **** 0
293 CCL4 1623 GROUP 4 Q2 **** 0
294 CCL4 1628 GROUP 4 Q2 **** 0
295 CCL4 1633 GROUP 4 Q2 **** 0
296 CCL4 1638 GROUP 4 Q2 **** 0
297 CCL4 1643 GROUP 4 Q2 **** 0
298 CCL4 1648 GROUP 4 Q2 **** 0
299 CCL4 1653 GROUP 4 Q2 **** 0
300 CCL4 1658 GROUP 4 Q2 **** 0
301 CCL4 1663 GROUP 4 Q2 **** 0
302 CCL4 1668 GROUP 4 Q2 **** 0
303 CCL4 1673 GROUP 4 Q2 **** 0
304 CCL4 1678 GROUP 4 Q2 **** 0
305 CCL4 1683 GROUP 4 Q2 **** 0
306 CCL4 1688 GROUP 4 Q2 **** 0
307 CCL4 1693 GROUP 4 Q2 **** 0
308 CCL4 1698 GROUP 4 Q2 **** 0
309 CCL4 1703 GROUP 4 Q2 **** 0
310 CCL4 1708 GROUP 4 Q2 **** 0
311 CCL4 1713 GROUP 4 Q2 **** 0
312 CCL4 1718 GROUP 4 Q2 **** 0
313 CCL4 1723 GROUP 4 Q2 **** 0
314 CCL4 1728 GROUP 4 Q2 **** 0
315 CCL4 1733 GROUP 4 Q2 **** 0
316 CCL4 1738 GROUP 4 Q2 **** 0
317 CCL4 1743 GROUP 4 Q2 **** 0
318 CCL4 1748 GROUP 4 Q2 **** 0
319 CCL4 1753 GROUP 4 Q2 **** 0
320 CCL4 1758 GROUP 4 Q2 **** 0
321 CCL4 1763 GROUP 4 Q2 **** 0
322 CCL4 1768 GROUP 4 Q2 **** 0
323 CCL4 1773 GROUP 4 Q2 **** 0
324 CCL4 1778 GROUP 4 Q2 **** 0
325 CCL4 1783 GROUP 4 Q2 **** 0
326 CCL4 1788 GROUP 4 Q2 **** 0
327 CCL4 1793 GROUP 4 Q2 **** 0
328 CCL4 1798 GROUP 4 Q2 **** 0
329 CCL4 1803 GROUP 4 Q2 **** 0
330 CCL4 1808 GROUP 4 Q2 **** 0
331 CCL4 1813 GROUP 4 Q2 **** 0
332 CCL4 1818 GROUP 4 Q2 **** 0
333 CCL4 1823 GROUP 4 Q2 **** 0
334 CCL4 1828 GROUP 4 Q2 **** 0
335 CCL4 1833 GROUP 4 Q2 **** 0
336 CCL4 1838 GROUP 4 Q2 **** 0
337 CCL4 1843 GROUP 4 Q2 **** 0
338 CCL4 1848 GROUP 4 Q2 **** 0
339 CCL4 1853 GROUP 4 Q2 **** 0
340 CCL4 1858 GROUP 4 Q2 **** 0
341 CCL4 1863 GROUP 4 Q2 **** 0
342 CCL4 1868 GROUP 4 Q2 **** 0
343 CCL4 1873 GROUP 4 Q2 **** 0
344 CCL4 1878 GROUP 4 Q2 **** 0
345 CCL4 1883 GROUP 4 Q2 **** 0
346 CCL4 1888 GROUP 4 Q2 **** 0
347 CCL4 1893 GROUP 4 Q2 **** 0
348 CCL4 1898 GROUP 4 Q2 **** 0
349 CCL4 1903 GROUP 4 Q2 **** 0
350 CCL4 1908 GROUP 4 Q2 **** 0
351 CCL4 1913 GROUP 4 Q2 **** 0
352 CCL4 1918 GROUP 4 Q2 **** 0
353 CCL4 1923 GROUP 4 Q2 **** 0
354 CCL4 1928 GROUP 4 Q2 **** 0
355 CCL4 1933 GROUP 4 Q2 **** 0
356 CCL4 1938 GROUP 4 Q2 **** 0
357 CCL4 1943 GROUP 4 Q2 **** 0
358 CCL4 1948 GROUP 4 Q2 **** 0
359 CCL4 1953 GROUP 4 Q2 **** 0
360 CCL4 1958 GROUP 4 Q2 **** 0
361 CCL4 1963 GROUP 4 Q2 **** 0
362 CCL4 1968 GROUP 4 Q2 **** 0
363 CCL4 1973 GROUP 4 Q2 **** 0
364 CCL4 1978 GROUP 4 Q2 **** 0
365 CCL4 1983 GROUP 4 Q2 **** 0
366 CCL4 1988 GROUP 4 Q2 **** 0
367 CCL4 1993 GROUP 4 Q2 **** 0
368 CCL4 1998 GROUP 4 Q2 **** 0
369 CCL4 2003 GROUP 4 Q2 **** 0
370 CCL4 2008 GROUP 4 Q2 **** 0
371 CCL4 2013 GROUP 4 Q2 **** 0
372 CCL4 2018 GROUP 4 Q2 **** 0
373 CCL4 2023 GROUP 4 Q2 **** 0
374 CCL4 2028 GROUP 4 Q2 **** 0
375 CCL4 2033 GROUP 4 Q2 **** 0
376 CCL4 2038 GROUP 4 Q2 **** 0
377 CCL4 2043 GROUP 4 Q2 **** 0
378 CCL4 2048 GROUP 4 Q2 **** 0
379 CCL4 2053 GROUP 4 Q2 **** 0
380 CCL4 2058 GROUP 4 Q2 **** 0
381 CCL4 2063 GROUP 4 Q2 **** 0
382 CCL4 2068 GROUP 4 Q2 **** 0
383 CCL4 2073 GROUP 4 Q2 **** 0
384 CCL4 2078 GROUP 4 Q2 **** 0
385 CCL4 2083 GROUP 4 Q2 **** 0
386 CCL4 2088 GROUP 4 Q2 **** 0
387 CCL4 2093 GROUP 4 Q2 **** 0
388 CCL4 2098 GROUP 4 Q2 **** 0
389 CCL4 2103 GROUP 4 Q2 **** 0
390 CCL4 2108 GROUP 4 Q2 **** 0
391 CCL4 2113 GROUP 4 Q2 **** 0
392 CCL4 2118 GROUP 4 Q2 **** 0
393 CCL4 2123 GROUP 4 Q2 **** 0
394 CCL4 2128 GROUP 4 Q2 **** 0
395 CCL4 2133 GROUP 4 Q2 **** 0
396 CCL4 2138 GROUP 4 Q2 **** 0
397 CCL4 2143 GROUP 4 Q2 **** 0
398 CCL4 2148 GROUP 4 Q2 **** 0
399 CCL4 2153 GROUP 4 Q2 **** 0
400 CCL4 2158 GROUP 4 Q2 **** 0
401 CCL4 2163 GROUP 4 Q2 **** 0
402 CCL4 2168 GROUP 4 Q2 **** 0
403 CCL4 2173 GROUP 4 Q2 **** 0
404 CCL4 2178 GROUP 4 Q2 **** 0
405 CCL4 2183 GROUP 4 Q2 **** 0
406 CCL4 2188 GROUP 4 Q2 **** 0
407 CCL4 2193 GROUP 4 Q2 **** 0
408 CCL4 2198 GROUP 4 Q2 **** 0
409 CCL4 2203 GROUP 4 Q2 **** 0
410 CCL4 2208 GROUP 4 Q2 **** 0

# MOE 2020.09 (io_trps.svl 2020.11)
