@<TRIPOS>MOLECULE
xlinker.****
164 168 1 0 0 
SMALL
USER_CHARGES


@<TRIPOS>ATOM
  1 C      -12.8443    -2.5520     6.2772 C.ar  1 <1>  -0.1435 
  2 C      -11.7784    -1.5076     5.9653 C.3   1 <1>   0.4870 
  3 H      -12.2659    -0.7354     5.3864 H     1 <1>   0.0800 
  4 O1     -11.3278    -0.8849     7.2316 O.3   1 <1>  -0.5600 
  5 C      -14.0491    -2.1118     6.8314 C.ar  1 <1>  -0.1500 
  6 H      -14.1840    -1.0806     7.0364 H     1 <1>   0.1500 
  7 C      -15.0703    -3.0108     7.1254 C.ar  1 <1>  -0.1500 
  8 H      -15.9808    -2.6643     7.5479 H     1 <1>   0.1500 
  9 C      -14.8958    -4.3650     6.8664 C.ar  1 <1>  -0.1500 
 10 H      -15.6708    -5.0559     7.0931 H     1 <1>   0.1500 
 11 C      -13.6990    -4.8145     6.3178 C.ar  1 <1>  -0.1500 
 12 H      -13.5664    -5.8490     6.1268 H     1 <1>   0.1500 
 13 C      -12.6738    -3.9167     6.0301 C.ar  1 <1>  -0.1500 
 14 H      -11.7616    -4.2849     5.6302 H     1 <1>   0.1500 
 15 C       -8.2411    -2.6037     3.7574 C.ar  1 <1>   0.0825 
 16 O       -7.0807    -2.8212     3.0474 O.3   1 <1>  -0.1650 
 17 C       -9.4059    -2.3003     3.0593 C.ar  1 <1>  -0.1500 
 18 H       -9.3862    -2.3025     1.9985 H     1 <1>   0.1500 
 19 C      -10.5646    -1.9911     3.7698 C.ar  1 <1>  -0.1500 
 20 H      -11.4535    -1.7438     3.2448 H     1 <1>   0.1500 
 21 C      -10.5592    -1.9882     5.1701 C.ar  1 <1>  -0.1435 
 22 C       -9.3990    -2.3849     5.8466 C.ar  1 <1>  -0.1500 
 23 H       -9.3980    -2.4324     6.9067 H     1 <1>   0.1500 
 24 C       -8.2340    -2.6791     5.1473 C.ar  1 <1>  -0.1500 
 25 H       -7.3445    -2.9460     5.6638 H     1 <1>   0.1500 
 26 C       -3.4029    -1.2780     4.2038 C.ar  1 <1>   0.0825 
 27 O       -2.1795    -0.7612     4.6041 O.3   1 <1>  -0.1650 
 28 C       -3.4799    -2.5543     3.6432 C.ar  1 <1>  -0.1500 
 29 H       -2.5981    -3.1280     3.5145 H     1 <1>   0.1500 
 30 C       -4.7197    -3.0601     3.2565 C.ar  1 <1>  -0.1500 
 31 H       -4.8033    -4.0266     2.8297 H     1 <1>   0.1500 
 32 C       -5.8641    -2.2885     3.4461 C.ar  1 <1>   0.0825 
 33 C       -5.7901    -1.0122     4.0149 C.ar  1 <1>  -0.1500 
 34 H       -6.6750    -0.4428     4.1543 H     1 <1>   0.1500 
 35 C       -4.5489    -0.5056     4.3973 C.ar  1 <1>  -0.1500 
 36 H       -4.4637     0.4563     4.8312 H     1 <1>   0.1500 
 37 C        0.7879     0.8304     2.1279 C.ar  1 <1>  -0.1435 
 38 C        1.8088     1.4902     1.2031 C.3   1 <1>   0.4870 
 39 H        2.4565     2.1234     1.7926 H     1 <1>   0.0800 
 40 O3       1.0685     2.3594     0.2711 O.3   1 <1>  -0.5600 
 41 C       -0.2504     0.0793     1.5705 C.ar  1 <1>  -0.1500 
 42 H       -0.2867    -0.0579     0.5179 H     1 <1>   0.1500 
 43 C       -1.2468    -0.4666     2.3745 C.ar  1 <1>  -0.1500 
 44 H       -2.0383    -1.0163     1.9343 H     1 <1>   0.1500 
 45 C       -1.1965    -0.2689     3.7546 C.ar  1 <1>   0.0825 
 46 C       -0.1496     0.4499     4.3306 C.ar  1 <1>  -0.1500 
 47 H       -0.1205     0.5809     5.3836 H     1 <1>   0.1500 
 48 C        0.8407     1.0002     3.5163 C.ar  1 <1>  -0.1500 
 49 H        1.6319     1.5568     3.9550 H     1 <1>   0.1500 
 50 C        4.4269    -1.2736    -0.8623 C.ar  1 <1>  -0.1500 
 51 H        5.0762    -1.9468    -1.3628 H     1 <1>   0.1500 
 52 C        3.9250    -0.1646    -1.5341 C.ar  1 <1>  -0.1500 
 53 H        4.1929     0.0047    -2.5470 H     1 <1>   0.1500 
 54 C        3.0724     0.7197    -0.8791 C.ar  1 <1>  -0.1500 
 55 H        2.6965     1.5616    -1.4027 H     1 <1>   0.1500 
 56 C        2.7109     0.5051     0.4553 C.ar  1 <1>  -0.1435 
 57 C        3.2234    -0.6120     1.1204 C.ar  1 <1>  -0.1500 
 58 H        2.9628    -0.7890     2.1341 H     1 <1>   0.1500 
 59 C        4.0748    -1.4977     0.4647 C.ar  1 <1>  -0.1500 
 60 H        4.4549    -2.3455     0.9765 H     1 <1>   0.1500 
 61 C      -17.5937     2.4881     2.6227 C.2   1 <1>   0.6590 
 62 C1     -16.3079     1.6691     2.5703 C.3   1 <1>  -0.0990 
 63 H11    -15.9491     1.7384     1.5435 H     1 <1>   0.0800 
 64 H12    -16.5512     0.6260     2.7719 H     1 <1>   0.0800 
 65 C13    -15.1977     2.1387     3.5360 C.3   1 <1>  -0.1600 
 66 H131   -15.0954     3.2239     3.5047 H     1 <1>   0.0800 
 67 C132   -13.8549     1.5245     3.1282 C.3   1 <1>  -0.1600 
 68 H131   -13.7023     1.6925     2.0614 H     1 <1>   0.0800 
 69 H132   -13.8682     0.4477     3.3109 H     1 <1>   0.0800 
 70 C133   -12.7130     2.1762     3.9228 C.3   1 <1>  -0.1600 
 71 C131   -11.3382     1.6898     3.4406 C.3   1 <1>  -0.1600 
 72 H131   -10.5876     1.9157     4.1999 H     1 <1>   0.0800 
 73 C132   -10.9116     2.3717     2.1286 C.3   1 <1>  -0.1600 
 74 H131   -10.5495     3.3767     2.3518 H     1 <1>   0.0800 
 75 H132   -11.7647     2.4610     1.4578 H     1 <1>   0.0800 
 76 C133    -9.8204     1.6073     1.3710 C.3   1 <1>  -0.0218 
 77 H131    -8.9459     1.5089     1.9999 H     1 <1>   0.0800 
 78 C132    -9.5064     2.2482     0.0310 C.2   1 <1>  -0.2882 
 79 H132   -10.3573     2.3649    -0.5985 H     1 <1>   0.1500 
 80 C133    -8.2852     2.6356    -0.3743 C.2   1 <1>  -0.2882 
 81 H131    -8.1294     3.0557    -1.3393 H     1 <1>   0.1500 
 82 C132    -7.0230     2.5014     0.4669 C.3   1 <1>  -0.0218 
 83 C131    -5.7736     3.1334    -0.1790 C.3   1 <1>  -0.1600 
 84 H131    -5.6416     2.6722    -1.1590 H     1 <1>   0.0800 
 85 C132    -4.4728     2.9461     0.6311 C.3   1 <1>  -0.1600 
 86 H131    -4.2753     1.8764     0.7341 H     1 <1>   0.0800 
 87 H132    -4.5945     3.3737     1.6269 H     1 <1>   0.0800 
 88 C133    -3.2534     3.6002    -0.0474 C.3   1 <1>  -0.1600 
 89 H131    -3.1911     3.2481    -1.0800 H     1 <1>   0.0800 
 90 C132    -1.9436     3.2246     0.6747 C.3   1 <1>  -0.1600 
 91 H131    -1.7670     2.1526     0.5667 H     1 <1>   0.0800 
 92 H132    -2.0321     3.4616     1.7366 H     1 <1>   0.0800 
 93 C133    -0.7441     3.9956     0.0866 C.3   1 <1>  -0.1600 
 94 H131    -0.6669     3.7799    -0.9793 H     1 <1>   0.0800 
 95 C132     0.5952     3.6401     0.7583 C.3   1 <1>   0.2000 
 96 H132     0.4532     3.5846     1.8389 H     1 <1>   0.0800 
 97 C133     1.6577     4.6924     0.4514 C.3   1 <1>  -0.2400 
 98 H131     1.7826     4.7803    -0.6276 H     1 <1>   0.0800 
 99 H132     2.6094     4.3899     0.8892 H     1 <1>   0.0800 
100 H133     1.3669     5.6571     0.8658 H     1 <1>   0.0800 
101 H133    -0.9359     5.0620     0.2033 H     1 <1>   0.0800 
102 H133    -3.3685     4.6885    -0.0528 H     1 <1>   0.0800 
103 H133    -5.9703     4.1977    -0.3298 H     1 <1>   0.0800 
104 H132    -6.8499     1.4502     0.6573 H     1 <1>   0.0800 
105 H133    -7.1823     2.9583     1.4340 H     1 <1>   0.0800 
106 H133   -10.1657     0.5970     1.1913 H     1 <1>   0.0800 
107 H133   -11.3707     0.6099     3.3030 H     1 <1>   0.0800 
108 H132   -12.8445     1.9261     4.9741 H     1 <1>   0.0800 
109 H133   -12.7610     3.2631     3.8262 H     1 <1>   0.0800 
110 H133   -15.4522     1.8457     4.5574 H     1 <1>   0.0800 
111 O2     -18.7212     2.0192     2.5872 O.co2 1 <1>  -0.5700 
112 O3     -17.3898     3.8300     2.6407 O.co2 1 <1>  -0.6500 
113 C        1.3968    11.1628    -0.5776 C.2   1 <1>   0.6590 
114 C1       0.5330     9.9112    -0.4073 C.3   1 <1>  -0.0990 
115 H11      1.0384     9.0737    -0.8879 H     1 <1>   0.0800 
116 H12     -0.4125    10.0918    -0.9200 H     1 <1>   0.0800 
117 C13      0.2511     9.5722     1.0695 C.3   1 <1>  -0.1600 
118 H131     1.2066     9.4187     1.5767 H     1 <1>   0.0800 
119 C132    -0.6027     8.3035     1.2350 C.3   1 <1>  -0.1600 
120 H131    -0.1114     7.4789     0.7181 H     1 <1>   0.0800 
121 H132    -1.5907     8.4551     0.7961 H     1 <1>   0.0800 
122 C133    -0.7414     7.9684     2.7286 C.3   1 <1>  -0.1600 
123 C131    -1.4473     6.6241     2.9703 C.3   1 <1>  -0.1600 
124 H131    -2.4606     6.6484     2.5630 H     1 <1>   0.0800 
125 C132    -1.5041     6.3254     4.4761 C.3   1 <1>  -0.1600 
126 H131    -2.0746     7.1110     4.9758 H     1 <1>   0.0800 
127 H132    -0.4869     6.3417     4.8722 H     1 <1>   0.0800 
128 C133    -2.1277     4.9602     4.8133 C.3   1 <1>  -0.0218 
129 H131    -3.1470     4.9184     4.4594 H     1 <1>   0.0800 
130 C132    -2.0290     4.6481     6.2938 C.2   1 <1>  -0.2882 
131 H132    -1.0301     4.5371     6.6384 H     1 <1>   0.1500 
132 C133    -3.0535     4.5138     7.1518 C.2   1 <1>  -0.2882 
133 H131    -2.8602     4.2967     8.1736 H     1 <1>   0.1500 
134 C132    -4.5313     4.6444     6.8230 C.3   1 <1>  -0.0218 
135 C131    -5.2342     3.2941     6.6193 C.3   1 <1>  -0.1600 
136 H131    -4.9366     2.8794     5.6555 H     1 <1>   0.0800 
137 C132    -6.7638     3.4124     6.6995 C.3   1 <1>  -0.1600 
138 H131    -7.1315     4.0722     5.9113 H     1 <1>   0.0800 
139 H132    -7.0241     3.8449     7.6689 H     1 <1>   0.0800 
140 C133    -7.4244     2.0350     6.5735 C.3   1 <1>  -0.1600 
141 H131    -7.3011     1.6608     5.5558 H     1 <1>   0.0800 
142 C132    -8.9191     2.0960     6.9220 C.3   1 <1>  -0.1600 
143 H131    -9.4461     2.7542     6.2288 H     1 <1>   0.0800 
144 H132    -9.0187     2.4818     7.9386 H     1 <1>   0.0800 
145 C133    -9.4950     0.6743     6.8576 C.3   1 <1>  -0.1600 
146 H131    -9.3191     0.2915     5.8538 H     1 <1>   0.0800 
147 C132   -10.9858     0.5210     7.2003 C.3   1 <1>   0.2000 
148 H132   -11.5870     1.0069     6.4358 H     1 <1>   0.0800 
149 C133   -11.3617     1.1080     8.5602 C.3   1 <1>  -0.2400 
150 H131   -10.7578     0.6426     9.3424 H     1 <1>   0.0800 
151 H132   -12.4184     0.9046     8.7426 H     1 <1>   0.0800 
152 H133   -11.2085     2.1872     8.5611 H     1 <1>   0.0800 
153 H133    -8.9358     0.0457     7.5530 H     1 <1>   0.0800 
154 H133    -6.9344     1.3394     7.2604 H     1 <1>   0.0800 
155 H133    -4.8993     2.6198     7.4101 H     1 <1>   0.0800 
156 H132    -4.7109     5.2839     5.9718 H     1 <1>   0.0800 
157 H133    -5.0131     5.1559     7.6438 H     1 <1>   0.0800 
158 H133    -1.6121     4.1814     4.2652 H     1 <1>   0.0800 
159 H133    -0.8898     5.8269     2.4764 H     1 <1>   0.0800 
160 H132    -1.2973     8.7674     3.2246 H     1 <1>   0.0800 
161 H133     0.2558     7.9213     3.1724 H     1 <1>   0.0800 
162 H133    -0.2573    10.4184     1.5397 H     1 <1>   0.0800 
163 O2       2.0073    11.7424     0.3090 O.co2 1 <1>  -0.5700 
164 O3       1.4262    11.6846    -1.8197 O.co2 1 <1>  -0.6500 
@<TRIPOS>BOND
  1   1   2  1   
  2   1   5  ar  
  3   1  13  ar  
  4   2   3  1   
  5   2   4  1   
  6   2  21  1   
  7   4 147  1   
  8   5   6  1   
  9   5   7  ar  
 10   7   8  1   
 11   7   9  ar  
 12   9  10  1   
 13   9  11  ar  
 14  11  12  1   
 15  11  13  ar  
 16  13  14  1   
 17  15  16  1   
 18  15  17  ar  
 19  15  24  ar  
 20  16  32  1   
 21  17  18  1   
 22  17  19  ar  
 23  19  20  1   
 24  19  21  ar  
 25  21  22  ar  
 26  22  23  1   
 27  22  24  ar  
 28  24  25  1   
 29  26  27  1   
 30  26  28  ar  
 31  26  35  ar  
 32  27  45  1   
 33  28  29  1   
 34  28  30  ar  
 35  30  31  1   
 36  30  32  ar  
 37  32  33  ar  
 38  33  34  1   
 39  33  35  ar  
 40  35  36  1   
 41  37  38  1   
 42  37  41  ar  
 43  37  48  ar  
 44  38  39  1   
 45  38  40  1   
 46  38  56  1   
 47  40  95  1   
 48  41  42  1   
 49  41  43  ar  
 50  43  44  1   
 51  43  45  ar  
 52  45  46  ar  
 53  46  47  1   
 54  46  48  ar  
 55  48  49  1   
 56  50  51  1   
 57  50  52  ar  
 58  50  59  ar  
 59  52  53  1   
 60  52  54  ar  
 61  54  55  1   
 62  54  56  ar  
 63  56  57  ar  
 64  57  58  1   
 65  57  59  ar  
 66  59  60  1   
 67  61  62  1   
 68  61 111  ar  
 69  61 112  ar  
 70  62  63  1   
 71  62  64  1   
 72  62  65  1   
 73  65  66  1   
 74  65  67  1   
 75  65 110  1   
 76  67  68  1   
 77  67  69  1   
 78  67  70  1   
 79  70  71  1   
 80  70 108  1   
 81  70 109  1   
 82  71  72  1   
 83  71  73  1   
 84  71 107  1   
 85  73  74  1   
 86  73  75  1   
 87  73  76  1   
 88  76  77  1   
 89  76  78  1   
 90  76 106  1   
 91  78  79  1   
 92  78  80  2   
 93  80  81  1   
 94  80  82  1   
 95  82  83  1   
 96  82 104  1   
 97  82 105  1   
 98  83  84  1   
 99  83  85  1   
100  83 103  1   
101  85  86  1   
102  85  87  1   
103  85  88  1   
104  88  89  1   
105  88  90  1   
106  88 102  1   
107  90  91  1   
108  90  92  1   
109  90  93  1   
110  93  94  1   
111  93  95  1   
112  93 101  1   
113  95  96  1   
114  95  97  1   
115  97  98  1   
116  97  99  1   
117  97 100  1   
118 113 114  1   
119 113 163  ar  
120 113 164  ar  
121 114 115  1   
122 114 116  1   
123 114 117  1   
124 117 118  1   
125 117 119  1   
126 117 162  1   
127 119 120  1   
128 119 121  1   
129 119 122  1   
130 122 123  1   
131 122 160  1   
132 122 161  1   
133 123 124  1   
134 123 125  1   
135 123 159  1   
136 125 126  1   
137 125 127  1   
138 125 128  1   
139 128 129  1   
140 128 130  1   
141 128 158  1   
142 130 131  1   
143 130 132  2   
144 132 133  1   
145 132 134  1   
146 134 135  1   
147 134 156  1   
148 134 157  1   
149 135 136  1   
150 135 137  1   
151 135 155  1   
152 137 138  1   
153 137 139  1   
154 137 140  1   
155 140 141  1   
156 140 142  1   
157 140 154  1   
158 142 143  1   
159 142 144  1   
160 142 145  1   
161 145 146  1   
162 145 147  1   
163 145 153  1   
164 147 148  1   
165 147 149  1   
166 149 150  1   
167 149 151  1   
168 149 152  1   
@<TRIPOS>SUBSTRUCTURE
  1 ****  35 GROUP 4 **** **** 0

# MOE 2020.09 (io_trps.svl 2020.11)
