@<TRIPOS>MOLECULE
xlinker.****
2814 2288 531 0 0 
SMALL
USER_CHARGES


@<TRIPOS>ATOM
   1 C      -12.8443    -2.5520     6.2772 C.ar    1 <1>   -0.1435 
   2 C      -11.7784    -1.5076     5.9653 C.3     1 <1>    0.4870 
   3 H      -12.2659    -0.7354     5.3864 H       1 <1>    0.0800 
   4 O1     -11.3278    -0.8849     7.2316 O.3     1 <1>   -0.5600 
   5 C      -14.0491    -2.1118     6.8314 C.ar    1 <1>   -0.1500 
   6 H      -14.1840    -1.0806     7.0364 H       1 <1>    0.1500 
   7 C      -15.0703    -3.0108     7.1254 C.ar    1 <1>   -0.1500 
   8 H      -15.9808    -2.6643     7.5479 H       1 <1>    0.1500 
   9 C      -14.8958    -4.3650     6.8664 C.ar    1 <1>   -0.1500 
  10 H      -15.6708    -5.0559     7.0931 H       1 <1>    0.1500 
  11 C      -13.6990    -4.8145     6.3178 C.ar    1 <1>   -0.1500 
  12 H      -13.5664    -5.8490     6.1268 H       1 <1>    0.1500 
  13 C      -12.6738    -3.9167     6.0301 C.ar    1 <1>   -0.1500 
  14 H      -11.7616    -4.2849     5.6302 H       1 <1>    0.1500 
  15 C       -8.2411    -2.6037     3.7574 C.ar    1 <1>    0.0825 
  16 O       -7.0807    -2.8212     3.0474 O.3     1 <1>   -0.1650 
  17 C       -9.4059    -2.3003     3.0593 C.ar    1 <1>   -0.1500 
  18 H       -9.3862    -2.3025     1.9985 H       1 <1>    0.1500 
  19 C      -10.5646    -1.9911     3.7698 C.ar    1 <1>   -0.1500 
  20 H      -11.4535    -1.7438     3.2448 H       1 <1>    0.1500 
  21 C      -10.5592    -1.9882     5.1701 C.ar    1 <1>   -0.1435 
  22 C       -9.3990    -2.3849     5.8466 C.ar    1 <1>   -0.1500 
  23 H       -9.3980    -2.4324     6.9067 H       1 <1>    0.1500 
  24 C       -8.2340    -2.6791     5.1473 C.ar    1 <1>   -0.1500 
  25 H       -7.3445    -2.9460     5.6638 H       1 <1>    0.1500 
  26 C       -3.4029    -1.2780     4.2038 C.ar    1 <1>    0.0825 
  27 O       -2.1795    -0.7612     4.6041 O.3     1 <1>   -0.1650 
  28 C       -3.4799    -2.5543     3.6432 C.ar    1 <1>   -0.1500 
  29 H       -2.5981    -3.1280     3.5145 H       1 <1>    0.1500 
  30 C       -4.7197    -3.0601     3.2565 C.ar    1 <1>   -0.1500 
  31 H       -4.8033    -4.0266     2.8297 H       1 <1>    0.1500 
  32 C       -5.8641    -2.2885     3.4461 C.ar    1 <1>    0.0825 
  33 C       -5.7901    -1.0122     4.0149 C.ar    1 <1>   -0.1500 
  34 H       -6.6750    -0.4428     4.1543 H       1 <1>    0.1500 
  35 C       -4.5489    -0.5056     4.3973 C.ar    1 <1>   -0.1500 
  36 H       -4.4637     0.4563     4.8312 H       1 <1>    0.1500 
  37 C        0.7879     0.8304     2.1279 C.ar    1 <1>   -0.1435 
  38 C        1.8088     1.4902     1.2031 C.3     1 <1>    0.4870 
  39 H        2.4565     2.1234     1.7926 H       1 <1>    0.0800 
  40 O3       1.0685     2.3594     0.2711 O.3     1 <1>   -0.5600 
  41 C       -0.2504     0.0793     1.5705 C.ar    1 <1>   -0.1500 
  42 H       -0.2867    -0.0579     0.5179 H       1 <1>    0.1500 
  43 C       -1.2468    -0.4666     2.3745 C.ar    1 <1>   -0.1500 
  44 H       -2.0383    -1.0163     1.9343 H       1 <1>    0.1500 
  45 C       -1.1965    -0.2689     3.7546 C.ar    1 <1>    0.0825 
  46 C       -0.1496     0.4499     4.3306 C.ar    1 <1>   -0.1500 
  47 H       -0.1205     0.5809     5.3836 H       1 <1>    0.1500 
  48 C        0.8407     1.0002     3.5163 C.ar    1 <1>   -0.1500 
  49 H        1.6319     1.5568     3.9550 H       1 <1>    0.1500 
  50 C        4.4269    -1.2736    -0.8623 C.ar    1 <1>   -0.1500 
  51 H        5.0762    -1.9468    -1.3628 H       1 <1>    0.1500 
  52 C        3.9250    -0.1646    -1.5341 C.ar    1 <1>   -0.1500 
  53 H        4.1929     0.0047    -2.5470 H       1 <1>    0.1500 
  54 C        3.0724     0.7197    -0.8791 C.ar    1 <1>   -0.1500 
  55 H        2.6965     1.5616    -1.4027 H       1 <1>    0.1500 
  56 C        2.7109     0.5051     0.4553 C.ar    1 <1>   -0.1435 
  57 C        3.2234    -0.6120     1.1204 C.ar    1 <1>   -0.1500 
  58 H        2.9628    -0.7890     2.1341 H       1 <1>    0.1500 
  59 C        4.0748    -1.4977     0.4647 C.ar    1 <1>   -0.1500 
  60 H        4.4549    -2.3455     0.9765 H       1 <1>    0.1500 
  61 C      -17.5937     2.4881     2.6227 C.2     1 <1>    0.6590 
  62 C1     -16.3079     1.6691     2.5703 C.3     1 <1>   -0.0990 
  63 H11    -15.9491     1.7384     1.5435 H       1 <1>    0.0800 
  64 H12    -16.5512     0.6260     2.7719 H       1 <1>    0.0800 
  65 C13    -15.1977     2.1387     3.5360 C.3     1 <1>   -0.1600 
  66 H131   -15.0954     3.2239     3.5047 H       1 <1>    0.0800 
  67 C132   -13.8549     1.5245     3.1282 C.3     1 <1>   -0.1600 
  68 H131   -13.7023     1.6925     2.0614 H       1 <1>    0.0800 
  69 H132   -13.8682     0.4477     3.3109 H       1 <1>    0.0800 
  70 C133   -12.7130     2.1762     3.9228 C.3     1 <1>   -0.1600 
  71 C131   -11.3382     1.6898     3.4406 C.3     1 <1>   -0.1600 
  72 H131   -10.5876     1.9157     4.1999 H       1 <1>    0.0800 
  73 C132   -10.9116     2.3717     2.1286 C.3     1 <1>   -0.1600 
  74 H131   -10.5495     3.3767     2.3518 H       1 <1>    0.0800 
  75 H132   -11.7647     2.4610     1.4578 H       1 <1>    0.0800 
  76 C133    -9.8204     1.6073     1.3710 C.3     1 <1>   -0.0218 
  77 H131    -8.9459     1.5089     1.9999 H       1 <1>    0.0800 
  78 C132    -9.5064     2.2482     0.0310 C.2     1 <1>   -0.2882 
  79 H132   -10.3573     2.3649    -0.5985 H       1 <1>    0.1500 
  80 C133    -8.2852     2.6356    -0.3743 C.2     1 <1>   -0.2882 
  81 H131    -8.1294     3.0557    -1.3393 H       1 <1>    0.1500 
  82 C132    -7.0230     2.5014     0.4669 C.3     1 <1>   -0.0218 
  83 C131    -5.7736     3.1334    -0.1790 C.3     1 <1>   -0.1600 
  84 H131    -5.6416     2.6722    -1.1590 H       1 <1>    0.0800 
  85 C132    -4.4728     2.9461     0.6311 C.3     1 <1>   -0.1600 
  86 H131    -4.2753     1.8764     0.7341 H       1 <1>    0.0800 
  87 H132    -4.5945     3.3737     1.6269 H       1 <1>    0.0800 
  88 C133    -3.2534     3.6002    -0.0474 C.3     1 <1>   -0.1600 
  89 H131    -3.1911     3.2481    -1.0800 H       1 <1>    0.0800 
  90 C132    -1.9436     3.2246     0.6747 C.3     1 <1>   -0.1600 
  91 H131    -1.7670     2.1526     0.5667 H       1 <1>    0.0800 
  92 H132    -2.0321     3.4616     1.7366 H       1 <1>    0.0800 
  93 C133    -0.7441     3.9956     0.0866 C.3     1 <1>   -0.1600 
  94 H131    -0.6669     3.7799    -0.9793 H       1 <1>    0.0800 
  95 C132     0.5952     3.6401     0.7583 C.3     1 <1>    0.2000 
  96 H132     0.4532     3.5846     1.8389 H       1 <1>    0.0800 
  97 C133     1.6577     4.6924     0.4514 C.3     1 <1>   -0.2400 
  98 H131     1.7826     4.7803    -0.6276 H       1 <1>    0.0800 
  99 H132     2.6094     4.3899     0.8892 H       1 <1>    0.0800 
 100 H133     1.3669     5.6571     0.8658 H       1 <1>    0.0800 
 101 H133    -0.9359     5.0620     0.2033 H       1 <1>    0.0800 
 102 H133    -3.3685     4.6885    -0.0528 H       1 <1>    0.0800 
 103 H133    -5.9703     4.1977    -0.3298 H       1 <1>    0.0800 
 104 H132    -6.8499     1.4502     0.6573 H       1 <1>    0.0800 
 105 H133    -7.1823     2.9583     1.4340 H       1 <1>    0.0800 
 106 H133   -10.1657     0.5970     1.1913 H       1 <1>    0.0800 
 107 H133   -11.3707     0.6099     3.3030 H       1 <1>    0.0800 
 108 H132   -12.8445     1.9261     4.9741 H       1 <1>    0.0800 
 109 H133   -12.7610     3.2631     3.8262 H       1 <1>    0.0800 
 110 H133   -15.4522     1.8457     4.5574 H       1 <1>    0.0800 
 111 O2     -18.7212     2.0192     2.5872 O.co2   1 <1>   -0.5700 
 112 O3     -17.3898     3.8300     2.6407 O.co2   1 <1>   -0.6500 
 113 C        1.3968    11.1628    -0.5776 C.2     1 <1>    0.6590 
 114 C1       0.5330     9.9112    -0.4073 C.3     1 <1>   -0.0990 
 115 H11      1.0384     9.0737    -0.8879 H       1 <1>    0.0800 
 116 H12     -0.4125    10.0918    -0.9200 H       1 <1>    0.0800 
 117 C13      0.2511     9.5722     1.0695 C.3     1 <1>   -0.1600 
 118 H131     1.2066     9.4187     1.5767 H       1 <1>    0.0800 
 119 C132    -0.6027     8.3035     1.2350 C.3     1 <1>   -0.1600 
 120 H131    -0.1114     7.4789     0.7181 H       1 <1>    0.0800 
 121 H132    -1.5907     8.4551     0.7961 H       1 <1>    0.0800 
 122 C133    -0.7414     7.9684     2.7286 C.3     1 <1>   -0.1600 
 123 C131    -1.4473     6.6241     2.9703 C.3     1 <1>   -0.1600 
 124 H131    -2.4606     6.6484     2.5630 H       1 <1>    0.0800 
 125 C132    -1.5041     6.3254     4.4761 C.3     1 <1>   -0.1600 
 126 H131    -2.0746     7.1110     4.9758 H       1 <1>    0.0800 
 127 H132    -0.4869     6.3417     4.8722 H       1 <1>    0.0800 
 128 C133    -2.1277     4.9602     4.8133 C.3     1 <1>   -0.0218 
 129 H131    -3.1470     4.9184     4.4594 H       1 <1>    0.0800 
 130 C132    -2.0290     4.6481     6.2938 C.2     1 <1>   -0.2882 
 131 H132    -1.0301     4.5371     6.6384 H       1 <1>    0.1500 
 132 C133    -3.0535     4.5138     7.1518 C.2     1 <1>   -0.2882 
 133 H131    -2.8602     4.2967     8.1736 H       1 <1>    0.1500 
 134 C132    -4.5313     4.6444     6.8230 C.3     1 <1>   -0.0218 
 135 C131    -5.2342     3.2941     6.6193 C.3     1 <1>   -0.1600 
 136 H131    -4.9366     2.8794     5.6555 H       1 <1>    0.0800 
 137 C132    -6.7638     3.4124     6.6995 C.3     1 <1>   -0.1600 
 138 H131    -7.1315     4.0722     5.9113 H       1 <1>    0.0800 
 139 H132    -7.0241     3.8449     7.6689 H       1 <1>    0.0800 
 140 C133    -7.4244     2.0350     6.5735 C.3     1 <1>   -0.1600 
 141 H131    -7.3011     1.6608     5.5558 H       1 <1>    0.0800 
 142 C132    -8.9191     2.0960     6.9220 C.3     1 <1>   -0.1600 
 143 H131    -9.4461     2.7542     6.2288 H       1 <1>    0.0800 
 144 H132    -9.0187     2.4818     7.9386 H       1 <1>    0.0800 
 145 C133    -9.4950     0.6743     6.8576 C.3     1 <1>   -0.1600 
 146 H131    -9.3191     0.2915     5.8538 H       1 <1>    0.0800 
 147 C132   -10.9858     0.5210     7.2003 C.3     1 <1>    0.2000 
 148 H132   -11.5870     1.0069     6.4358 H       1 <1>    0.0800 
 149 C133   -11.3617     1.1080     8.5602 C.3     1 <1>   -0.2400 
 150 H131   -10.7578     0.6426     9.3424 H       1 <1>    0.0800 
 151 H132   -12.4184     0.9046     8.7426 H       1 <1>    0.0800 
 152 H133   -11.2085     2.1872     8.5611 H       1 <1>    0.0800 
 153 H133    -8.9358     0.0457     7.5530 H       1 <1>    0.0800 
 154 H133    -6.9344     1.3394     7.2604 H       1 <1>    0.0800 
 155 H133    -4.8993     2.6198     7.4101 H       1 <1>    0.0800 
 156 H132    -4.7109     5.2839     5.9718 H       1 <1>    0.0800 
 157 H133    -5.0131     5.1559     7.6438 H       1 <1>    0.0800 
 158 H133    -1.6121     4.1814     4.2652 H       1 <1>    0.0800 
 159 H133    -0.8898     5.8269     2.4764 H       1 <1>    0.0800 
 160 H132    -1.2973     8.7674     3.2246 H       1 <1>    0.0800 
 161 H133     0.2558     7.9213     3.1724 H       1 <1>    0.0800 
 162 H133    -0.2573    10.4184     1.5397 H       1 <1>    0.0800 
 163 O2       2.0073    11.7424     0.3090 O.co2   1 <1>   -0.5700 
 164 O3       1.4262    11.6846    -1.8197 O.co2   1 <1>   -0.6500 
 165 CL     -31.1099   -11.9936   -17.1915 Cl      2 CCL4  -0.0812 
 166 C      -30.6086   -11.9938   -15.5710 C.3     2 CCL4   0.3246 
 167 CL     -30.9451   -13.4894   -14.7862 Cl      2 CCL4  -0.0812 
 168 CL     -31.1668   -10.6384   -14.6849 Cl      2 CCL4  -0.0812 
 169 CL     -28.8165   -11.8673   -15.5933 Cl      2 CCL4  -0.0812 
 170 CL     -21.9607    -4.1858   -14.8651 Cl      3 CCL4  -0.0812 
 171 C      -22.0061    -2.5657   -15.5475 C.3     3 CCL4   0.3246 
 172 CL     -21.7610    -1.2913   -14.1903 Cl      3 CCL4  -0.0812 
 173 CL     -23.6215    -2.1699   -16.2026 Cl      3 CCL4  -0.0812 
 174 CL     -20.8397    -2.1400   -16.8033 Cl      3 CCL4  -0.0812 
 175 CL      20.0792     1.9273   -16.2322 Cl      4 CCL4  -0.0812 
 176 C       18.2803     1.5117   -16.2365 C.3     4 CCL4   0.3246 
 177 CL      18.0700    -0.1876   -16.8442 Cl      4 CCL4  -0.0812 
 178 CL      17.4373     2.6334   -17.2876 Cl      4 CCL4  -0.0812 
 179 CL      17.6093     1.7947   -14.5719 Cl      4 CCL4  -0.0812 
 180 CL      18.1798   -15.1316    21.8904 Cl      5 CCL4  -0.0812 
 181 C       17.9322   -16.7024    22.6561 C.3     5 CCL4   0.3246 
 182 CL      16.5535   -16.6662    23.7396 Cl      5 CCL4  -0.0812 
 183 CL      19.3893   -17.1884    23.6013 Cl      5 CCL4  -0.0812 
 184 CL      17.7095   -17.9825    21.3771 Cl      5 CCL4  -0.0812 
 185 CL     -18.0039   -12.1582   -11.2273 Cl      6 CCL4  -0.0812 
 186 C      -18.3332   -13.7857   -11.8840 C.3     6 CCL4   0.3246 
 187 CL     -19.5841   -14.6246   -10.9976 Cl      6 CCL4  -0.0812 
 188 CL     -16.9409   -14.7886   -11.6503 Cl      6 CCL4  -0.0812 
 189 CL     -18.7461   -13.5370   -13.6347 Cl      6 CCL4  -0.0812 
 190 CL     -17.7190   -20.1785   -11.4286 Cl      7 CCL4  -0.0812 
 191 C      -19.1845   -19.3026   -11.9533 C.3     7 CCL4   0.3246 
 192 CL     -18.6195   -18.0589   -13.1061 Cl      7 CCL4  -0.0812 
 193 CL     -20.0768   -18.5538   -10.6545 Cl      7 CCL4  -0.0812 
 194 CL     -20.2860   -20.3889   -12.9385 Cl      7 CCL4  -0.0812 
 195 CL     -19.7938   -12.9620    -6.4316 Cl      8 CCL4  -0.0812 
 196 C      -20.5505   -14.5299    -5.9517 C.3     8 CCL4   0.3246 
 197 CL     -20.6586   -15.5834    -7.4070 Cl      8 CCL4  -0.0812 
 198 CL     -22.2304   -14.1874    -5.3173 Cl      8 CCL4  -0.0812 
 199 CL     -19.6042   -15.4344    -4.6539 Cl      8 CCL4  -0.0812 
 200 CL     -20.1918   -18.5333    23.4615 Cl      9 CCL4  -0.0812 
 201 C      -19.6477   -17.0242    22.7336 C.3     9 CCL4   0.3246 
 202 CL     -18.3768   -16.2435    23.7771 Cl      9 CCL4  -0.0812 
 203 CL     -20.9598   -15.7816    22.6385 Cl      9 CCL4  -0.0812 
 204 CL     -18.9796   -17.1351    21.1661 Cl      9 CCL4  -0.0812 
 205 CL      18.4024   -12.8146    -1.6705 Cl     10 CCL4  -0.0812 
 206 C       19.1464   -13.5133    -0.3168 C.3    10 CCL4   0.3246 
 207 CL      18.1232   -13.4800     1.1328 Cl     10 CCL4  -0.0812 
 208 CL      20.5214   -12.4933     0.1896 Cl     10 CCL4  -0.0812 
 209 CL      19.6957   -15.1426    -0.6481 Cl     10 CCL4  -0.0812 
 210 CL     -17.4784   -18.6642    -5.4225 Cl     11 CCL4  -0.0812 
 211 C      -18.4410   -20.0428    -6.1426 C.3    11 CCL4   0.3246 
 212 CL     -17.5980   -20.6865    -7.5965 Cl     11 CCL4  -0.0812 
 213 CL     -20.0090   -19.4112    -6.6214 Cl     11 CCL4  -0.0812 
 214 CL     -18.7623   -21.4261    -4.9809 Cl     11 CCL4  -0.0812 
 215 CL      17.1996   -14.5530    -7.5972 Cl     12 CCL4  -0.0812 
 216 C       18.1005   -13.4803    -6.5235 C.3    12 CCL4   0.3246 
 217 CL      19.2604   -12.3929    -7.3320 Cl     12 CCL4  -0.0812 
 218 CL      19.0725   -14.5649    -5.2755 Cl     12 CCL4  -0.0812 
 219 CL      16.9945   -12.5148    -5.5438 Cl     12 CCL4  -0.0812 
 220 CL     -28.9289   -19.0794    -9.2158 Cl     13 CCL4  -0.0812 
 221 C      -30.4672   -18.6550    -8.6273 C.3    13 CCL4   0.3246 
 222 CL     -31.5491   -18.3361   -10.0698 Cl     13 CCL4  -0.0812 
 223 CL     -30.3775   -17.2051    -7.6897 Cl     13 CCL4  -0.0812 
 224 CL     -31.2020   -19.9379    -7.7000 Cl     13 CCL4  -0.0812 
 225 CL     -27.5528   -10.1407    -4.9467 Cl     14 CCL4  -0.0812 
 226 C      -26.9555   -11.3430    -3.8401 C.3    14 CCL4   0.3246 
 227 CL     -27.7135   -12.9126    -4.2444 Cl     14 CCL4  -0.0812 
 228 CL     -27.4172   -10.9359    -2.1375 Cl     14 CCL4  -0.0812 
 229 CL     -25.1918   -11.5528    -3.8532 Cl     14 CCL4  -0.0812 
 230 CL     -21.4629   -10.2958    -2.5410 Cl     15 CCL4  -0.0812 
 231 C      -20.1137   -11.1016    -1.6410 C.3    15 CCL4   0.3246 
 232 CL     -18.5159   -10.7111    -2.4636 Cl     15 CCL4  -0.0812 
 233 CL     -20.3648   -12.8601    -1.7037 Cl     15 CCL4  -0.0812 
 234 CL     -20.1074   -10.4156     0.0239 Cl     15 CCL4  -0.0812 
 235 CL     -18.9582    -1.8358    -5.6693 Cl     16 CCL4  -0.0812 
 236 C      -18.5123    -0.9891    -7.1596 C.3    16 CCL4   0.3246 
 237 CL     -17.8357     0.6042    -6.6668 Cl     16 CCL4  -0.0812 
 238 CL     -20.1075    -0.7323    -7.9093 Cl     16 CCL4  -0.0812 
 239 CL     -17.4407    -1.8335    -8.3187 Cl     16 CCL4  -0.0812 
 240 CL     -18.4687    -7.2369    -0.7577 Cl     17 CCL4  -0.0812 
 241 C      -18.5508    -6.4752     0.7965 C.3    17 CCL4   0.3246 
 242 CL     -19.3705    -7.5377     1.9993 Cl     17 CCL4  -0.0812 
 243 CL     -19.4345    -4.9929     0.6605 Cl     17 CCL4  -0.0812 
 244 CL     -16.8862    -6.1878     1.3922 Cl     17 CCL4  -0.0812 
 245 CL     -20.2240   -10.3803    -8.5165 Cl     18 CCL4  -0.0812 
 246 C      -21.1862    -9.5893    -7.2550 C.3    18 CCL4   0.3246 
 247 CL     -20.1547    -8.9739    -5.9527 Cl     18 CCL4  -0.0812 
 248 CL     -22.4016   -10.5711    -6.5174 Cl     18 CCL4  -0.0812 
 249 CL     -21.8959    -7.9886    -8.0121 Cl     18 CCL4  -0.0812 
 250 CL     -19.4540    -4.8594    -9.8365 Cl     19 CCL4  -0.0812 
 251 C      -20.2675    -4.2353   -11.1924 C.3    19 CCL4   0.3246 
 252 CL     -21.8479    -5.0550   -11.2985 Cl     19 CCL4  -0.0812 
 253 CL     -19.5390    -4.5530   -12.6933 Cl     19 CCL4  -0.0812 
 254 CL     -20.4864    -2.5359   -10.8957 Cl     19 CCL4  -0.0812 
 255 CL      19.7092    -3.8338    -2.5326 Cl     20 CCL4  -0.0812 
 256 C       18.1243    -3.8435    -1.7314 C.3    20 CCL4   0.3246 
 257 CL      17.9875    -5.0530    -0.4148 Cl     20 CCL4  -0.0812 
 258 CL      16.7779    -4.0798    -2.9701 Cl     20 CCL4  -0.0812 
 259 CL      17.7660    -2.1606    -1.1779 Cl     20 CCL4  -0.0812 
 260 CL      17.0534    -6.0317    -6.4837 Cl     21 CCL4  -0.0812 
 261 C       17.7111    -7.2449    -7.6087 C.3    21 CCL4   0.3246 
 262 CL      16.5687    -7.6570    -8.8582 Cl     21 CCL4  -0.0812 
 263 CL      18.2054    -8.6600    -6.7753 Cl     21 CCL4  -0.0812 
 264 CL      19.0508    -6.5345    -8.4881 Cl     21 CCL4  -0.0812 
 265 CL     -28.4849    -4.1644    -8.0144 Cl     22 CCL4  -0.0812 
 266 C      -28.9801    -4.3676    -6.2101 C.3    22 CCL4   0.3246 
 267 CL     -30.6575    -3.6691    -5.9151 Cl     22 CCL4  -0.0812 
 268 CL     -27.7536    -3.4221    -5.2269 Cl     22 CCL4  -0.0812 
 269 CL     -28.8852    -6.0703    -5.7300 Cl     22 CCL4  -0.0812 
 270 CL     -21.9388    -1.9776    -3.0831 Cl     23 CCL4  -0.0812 
 271 C      -20.9575    -2.8018    -1.8918 C.3    23 CCL4   0.3246 
 272 CL     -20.3732    -4.3069    -2.6225 Cl     23 CCL4  -0.0812 
 273 CL     -21.8978    -3.1022    -0.5411 Cl     23 CCL4  -0.0812 
 274 CL     -19.5005    -1.7593    -1.5252 Cl     23 CCL4  -0.0812 
 275 CL      18.7914     1.7471    -5.4329 Cl     24 CCL4  -0.0812 
 276 C       18.9088    -0.0135    -5.5823 C.3    24 CCL4   0.3246 
 277 CL      20.5182    -0.5274    -5.1610 Cl     24 CCL4  -0.0812 
 278 CL      18.8283    -0.4662    -7.3145 Cl     24 CCL4  -0.0812 
 279 CL      17.7495    -0.7912    -4.5341 Cl     24 CCL4  -0.0812 
 280 CL      18.6545    -9.3463    -0.8596 Cl     25 CCL4  -0.0812 
 281 C       18.0207    -9.2137    -2.5184 C.3    25 CCL4   0.3246 
 282 CL      19.0301   -10.0271    -3.7050 Cl     25 CCL4  -0.0812 
 283 CL      17.8099    -7.4166    -2.9733 Cl     25 CCL4  -0.0812 
 284 CL      16.4595    -9.9644    -2.6188 Cl     25 CCL4  -0.0812 
 285 CL     -24.9472    -3.8195    -7.2581 Cl     26 CCL4  -0.0812 
 286 C      -23.3133    -3.4292    -6.6742 C.3    26 CCL4   0.3246 
 287 CL     -23.1970    -1.6571    -6.3668 Cl     26 CCL4  -0.0812 
 288 CL     -22.0907    -3.9403    -7.8910 Cl     26 CCL4  -0.0812 
 289 CL     -23.0255    -4.1596    -5.0902 Cl     26 CCL4  -0.0812 
 290 CL     -28.2088    -6.8440    -1.2811 Cl     27 CCL4  -0.0812 
 291 C      -28.0976    -7.0269     0.4575 C.3    27 CCL4   0.3246 
 292 CL     -26.4165    -6.3467     0.8904 Cl     27 CCL4  -0.0812 
 293 CL     -28.2052    -8.7828     0.8496 Cl     27 CCL4  -0.0812 
 294 CL     -29.2916    -6.0913     1.3372 Cl     27 CCL4  -0.0812 
 295 CL     -25.9356    -8.7292   -15.8512 Cl     28 CCL4  -0.0812 
 296 C      -25.4046    -7.3818   -14.8709 C.3    28 CCL4   0.3246 
 297 CL     -25.6516    -5.8148   -15.7688 Cl     28 CCL4  -0.0812 
 298 CL     -23.6524    -7.6126   -14.6125 Cl     28 CCL4  -0.0812 
 299 CL     -26.3389    -7.3298   -13.2977 Cl     28 CCL4  -0.0812 
 300 CL     -27.7695   -14.5359   -12.9568 Cl     29 CCL4  -0.0812 
 301 C      -28.3196   -15.9078   -11.9991 C.3    29 CCL4   0.3246 
 302 CL     -29.3061   -15.3560   -10.6338 Cl     29 CCL4  -0.0812 
 303 CL     -26.8898   -16.7076   -11.3975 Cl     29 CCL4  -0.0812 
 304 CL     -29.3564   -16.9766   -13.0664 Cl     29 CCL4  -0.0812 
 305 CL     -22.6767   -13.4685     2.3643 Cl     30 CCL4  -0.0812 
 306 C      -21.8786   -14.7679     3.2803 C.3    30 CCL4   0.3246 
 307 CL     -23.2543   -15.6038     4.0035 Cl     30 CCL4  -0.0812 
 308 CL     -20.8591   -13.9862     4.4292 Cl     30 CCL4  -0.0812 
 309 CL     -21.0532   -15.8330     2.2332 Cl     30 CCL4  -0.0812 
 310 CL     -22.9283   -12.4459    23.2408 Cl     31 CCL4  -0.0812 
 311 C      -21.4565   -11.4879    23.1365 C.3    31 CCL4   0.3246 
 312 CL     -19.9760   -12.5037    23.2711 Cl     31 CCL4  -0.0812 
 313 CL     -21.3706   -10.2013    24.3203 Cl     31 CCL4  -0.0812 
 314 CL     -21.3359   -10.6576    21.5362 Cl     31 CCL4  -0.0812 
 315 CL     -23.9291   -17.7631   -13.0046 Cl     32 CCL4  -0.0812 
 316 C      -23.2059   -16.1804   -12.9668 C.3    32 CCL4   0.3246 
 317 CL     -22.8735   -15.8139   -11.1792 Cl     32 CCL4  -0.0812 
 318 CL     -24.3435   -14.9152   -13.4915 Cl     32 CCL4  -0.0812 
 319 CL     -21.7217   -15.9857   -13.8960 Cl     32 CCL4  -0.0812 
 320 CL     -22.3029    -8.9796   -11.6928 Cl     33 CCL4  -0.0812 
 321 C      -22.8411   -10.7405   -11.7776 C.3    33 CCL4   0.3246 
 322 CL     -24.2939   -10.7388   -12.8464 Cl     33 CCL4  -0.0812 
 323 CL     -23.1452   -11.3364   -10.1540 Cl     33 CCL4  -0.0812 
 324 CL     -21.4820   -11.7291   -12.3807 Cl     33 CCL4  -0.0812 
 325 CL     -26.9702   -15.0962   -16.7827 Cl     34 CCL4  -0.0812 
 326 C      -26.1026   -16.5808   -16.7277 C.3    34 CCL4   0.3246 
 327 CL     -26.6216   -17.8189   -17.9402 Cl     34 CCL4  -0.0812 
 328 CL     -26.4576   -17.3866   -15.0435 Cl     34 CCL4  -0.0812 
 329 CL     -24.3072   -16.4244   -16.7705 Cl     34 CCL4  -0.0812 
 330 CL     -28.4541    23.7836   -14.7543 Cl     35 CCL4  -0.0812 
 331 C      -28.0799    22.9653   -13.2394 C.3    35 CCL4   0.3246 
 332 CL     -26.7838    23.7824   -12.3875 Cl     35 CCL4  -0.0812 
 333 CL     -27.5401    21.2743   -13.5348 Cl     35 CCL4  -0.0812 
 334 CL     -29.5643    22.7607   -12.1571 Cl     35 CCL4  -0.0812 
 335 CL     -26.5899    -2.5306   -11.1104 Cl     36 CCL4  -0.0812 
 336 C      -24.9502    -2.0894   -11.6099 C.3    36 CCL4   0.3246 
 337 CL     -24.0140    -1.7263   -10.2347 Cl     36 CCL4  -0.0812 
 338 CL     -25.0266    -0.5647   -12.5037 Cl     36 CCL4  -0.0812 
 339 CL     -24.3418    -3.4284   -12.5685 Cl     36 CCL4  -0.0812 
 340 CL     -29.2013    -2.5615   -17.1010 Cl     37 CCL4  -0.0812 
 341 C      -27.5169    -2.3098   -16.6320 C.3    37 CCL4   0.3246 
 342 CL     -27.2173    -2.9303   -15.0142 Cl     37 CCL4  -0.0812 
 343 CL     -27.3877    -0.4858   -16.6238 Cl     37 CCL4  -0.0812 
 344 CL     -26.5197    -3.1219   -17.9594 Cl     37 CCL4  -0.0812 
 345 CL     -24.2279    20.6304   -16.4828 Cl     38 CCL4  -0.0812 
 346 C      -24.1440    22.1193   -15.5449 C.3    38 CCL4   0.3246 
 347 CL     -24.1418    21.9198   -13.8439 Cl     38 CCL4  -0.0812 
 348 CL     -25.4291    23.2321   -16.0179 Cl     38 CCL4  -0.0812 
 349 CL     -22.7243    23.1825   -16.0613 Cl     38 CCL4  -0.0812 
 350 CL     -24.5379   -15.0013    -7.5585 Cl     39 CCL4  -0.0812 
 351 C      -25.7963   -13.9106    -8.2052 C.3    39 CCL4   0.3246 
 352 CL     -27.5025   -14.6145    -7.6771 Cl     39 CCL4  -0.0812 
 353 CL     -25.7758   -13.8387    -9.9767 Cl     39 CCL4  -0.0812 
 354 CL     -25.8675   -12.3050    -7.4209 Cl     39 CCL4  -0.0812 
 355 CL     -28.5240   -10.7878    -9.1407 Cl     40 CCL4  -0.0812 
 356 C      -29.2018   -10.4383   -10.7040 C.3    40 CCL4   0.3246 
 357 CL     -30.0203   -11.9356   -11.1354 Cl     40 CCL4  -0.0812 
 358 CL     -28.0675   -10.0268   -12.0371 Cl     40 CCL4  -0.0812 
 359 CL     -30.4420    -9.1551   -10.6762 Cl     40 CCL4  -0.0812 
 360 CL     -26.1725   -17.9585    -6.6662 Cl     41 CCL4  -0.0812 
 361 C      -24.6936   -18.6421    -7.3557 C.3    41 CCL4   0.3246 
 362 CL     -24.4790   -17.8794    -8.9946 Cl     41 CCL4  -0.0812 
 363 CL     -24.7981   -20.3937    -7.4668 Cl     41 CCL4  -0.0812 
 364 CL     -23.2818   -18.2544    -6.3707 Cl     41 CCL4  -0.0812 
 365 CL     -24.6829    -9.0850     2.1605 Cl     42 CCL4  -0.0812 
 366 C      -23.0854    -9.4536     1.4821 C.3    42 CCL4   0.3246 
 367 CL     -22.4375    -7.9558     0.6270 Cl     42 CCL4  -0.0812 
 368 CL     -23.2731   -10.7741     0.3512 Cl     42 CCL4  -0.0812 
 369 CL     -21.9329    -9.9456     2.8315 Cl     42 CCL4  -0.0812 
 370 CL     -27.9539     2.2831    -7.8592 Cl     43 CCL4  -0.0812 
 371 C      -26.6836     1.0378    -8.0098 C.3    43 CCL4   0.3246 
 372 CL     -25.7018     1.0327    -6.5118 Cl     43 CCL4  -0.0812 
 373 CL     -25.8293     1.4233    -9.5872 Cl     43 CCL4  -0.0812 
 374 CL     -27.4000    -0.5980    -8.1004 Cl     43 CCL4  -0.0812 
 375 CL     -28.0914    -1.0008    -1.6957 Cl     44 CCL4  -0.0812 
 376 C      -26.4288    -1.5978    -1.8626 C.3    44 CCL4   0.3246 
 377 CL     -25.8476    -0.9403    -3.4452 Cl     44 CCL4  -0.0812 
 378 CL     -26.3026    -3.3267    -1.7041 Cl     44 CCL4  -0.0812 
 379 CL     -25.4727    -0.8354    -0.5054 Cl     44 CCL4  -0.0812 
 380 CL     -24.3427   -16.1190     0.5682 Cl     45 CCL4  -0.0812 
 381 C      -25.3727   -15.3436    -0.6868 C.3    45 CCL4   0.3246 
 382 CL     -26.4229   -16.5743    -1.3866 Cl     45 CCL4  -0.0812 
 383 CL     -24.4181   -14.5409    -1.9356 Cl     45 CCL4  -0.0812 
 384 CL     -26.4034   -14.1469     0.2670 Cl     45 CCL4  -0.0812 
 385 CL     -28.9435    24.0200    -2.6961 Cl     46 CCL4  -0.0812 
 386 C      -27.8291    23.3864    -3.9984 C.3    46 CCL4   0.3246 
 387 CL     -27.6225    21.6539    -3.7945 Cl     46 CCL4  -0.0812 
 388 CL     -26.3838    24.2891    -3.6360 Cl     46 CCL4  -0.0812 
 389 CL     -28.4851    23.8861    -5.5611 Cl     46 CCL4  -0.0812 
 390 CL     -21.6458   -16.6049    -1.3310 Cl     47 CCL4  -0.0812 
 391 C      -21.6513   -18.2519    -1.7541 C.3    47 CCL4   0.3246 
 392 CL     -21.1872   -19.1742    -0.2556 Cl     47 CCL4  -0.0812 
 393 CL     -20.4973   -18.6251    -2.9621 Cl     47 CCL4  -0.0812 
 394 CL     -23.2517   -18.7466    -2.1673 Cl     47 CCL4  -0.0812 
 395 CL     -26.3874    24.1056     0.7287 Cl     48 CCL4  -0.0812 
 396 C      -25.7188    22.4480     0.4734 C.3    48 CCL4   0.3246 
 397 CL     -24.1463    22.5387    -0.2744 Cl     48 CCL4  -0.0812 
 398 CL     -26.7769    21.4986    -0.5979 Cl     48 CCL4  -0.0812 
 399 CL     -25.4507    21.7526     2.1319 Cl     48 CCL4  -0.0812 
 400 CL     -22.8003    -7.3768    -3.9793 Cl     49 CCL4  -0.0812 
 401 C      -24.1473    -7.0346    -2.9476 C.3    49 CCL4   0.3246 
 402 CL     -25.4779    -6.3233    -3.8741 Cl     49 CCL4  -0.0812 
 403 CL     -23.6417    -5.5994    -2.0130 Cl     49 CCL4  -0.0812 
 404 CL     -24.8371    -8.3746    -1.9149 Cl     49 CCL4  -0.0812 
 405 CL     -28.1134    -3.2394     3.5393 Cl     50 CCL4  -0.0812 
 406 C      -29.1424    -1.9831     2.9451 C.3    50 CCL4   0.3246 
 407 CL     -28.0959    -0.9640     1.9257 Cl     50 CCL4  -0.0812 
 408 CL     -29.9597    -1.1310     4.3598 Cl     50 CCL4  -0.0812 
 409 CL     -30.4972    -2.6635     1.9603 Cl     50 CCL4  -0.0812 
 410 CL     -29.5455    -9.1016    22.4075 Cl     51 CCL4  -0.0812 
 411 C      -29.9707    -7.3038    22.0362 C.3    51 CCL4   0.3246 
 412 CL     -29.0610    -6.1871    23.0471 Cl     51 CCL4  -0.0812 
 413 CL     -31.7052    -7.0830    22.4548 Cl     51 CCL4  -0.0812 
 414 CL     -29.5745    -6.9488    20.3711 Cl     51 CCL4  -0.0812 
 415 CL     -24.9235    -6.2929    -9.6444 Cl     52 CCL4  -0.0812 
 416 C      -25.9412    -7.5550    -8.8528 C.3    52 CCL4   0.3246 
 417 CL     -25.5913    -7.6498    -7.0950 Cl     52 CCL4  -0.0812 
 418 CL     -25.6256    -9.1553    -9.5363 Cl     52 CCL4  -0.0812 
 419 CL     -27.7051    -7.2527    -9.1897 Cl     52 CCL4  -0.0812 
 420 CL     -30.6536    -4.3444   -14.2622 Cl     53 CCL4  -0.0812 
 421 C      -30.2213    -5.6101   -13.1195 C.3    53 CCL4   0.3246 
 422 CL     -31.5231    -5.5820   -11.9772 Cl     53 CCL4  -0.0812 
 423 CL     -28.6498    -5.2476   -12.2230 Cl     53 CCL4  -0.0812 
 424 CL     -29.9621    -7.1270   -13.8945 Cl     53 CCL4  -0.0812 
 425 CL     -30.3523    -0.9238   -13.0730 Cl     54 CCL4  -0.0812 
 426 C      -30.7271    -0.7169   -11.3907 C.3    54 CCL4   0.3246 
 427 CL     -29.7836     0.7071   -10.8766 Cl     54 CCL4  -0.0812 
 428 CL     -30.2200    -2.1511   -10.5152 Cl     54 CCL4  -0.0812 
 429 CL     -32.4074    -0.4129   -11.0130 Cl     54 CCL4  -0.0812 
 430 CL     -31.1099   -11.9936     7.8085 Cl     55 CCL4  -0.0812 
 431 C      -30.6086   -11.9938     9.4290 C.3    55 CCL4   0.3246 
 432 CL     -30.9451   -13.4894    10.2138 Cl     55 CCL4  -0.0812 
 433 CL     -31.1668   -10.6384    10.3151 Cl     55 CCL4  -0.0812 
 434 CL     -28.8165   -11.8673     9.4067 Cl     55 CCL4  -0.0812 
 435 CL     -21.9607    -4.1858    10.1349 Cl     56 CCL4  -0.0812 
 436 C      -22.0061    -2.5657     9.4525 C.3    56 CCL4   0.3246 
 437 CL     -21.7610    -1.2913    10.8097 Cl     56 CCL4  -0.0812 
 438 CL     -23.6215    -2.1699     8.7974 Cl     56 CCL4  -0.0812 
 439 CL     -20.8397    -2.1400     8.1967 Cl     56 CCL4  -0.0812 
 440 CL      20.0792     1.9273     8.7678 Cl     57 CCL4  -0.0812 
 441 C       18.2803     1.5117     8.7635 C.3    57 CCL4   0.3246 
 442 CL      18.0700    -0.1876     8.1558 Cl     57 CCL4  -0.0812 
 443 CL      17.4373     2.6334     7.7124 Cl     57 CCL4  -0.0812 
 444 CL      17.6093     1.7947    10.4281 Cl     57 CCL4  -0.0812 
 445 CL     -29.0542   -14.4068     3.1348 Cl     58 CCL4  -0.0812 
 446 C      -28.0534   -15.7329     3.8885 C.3    58 CCL4   0.3246 
 447 CL     -27.6363   -16.8115     2.5448 Cl     58 CCL4  -0.0812 
 448 CL     -28.9897   -16.5296     5.1261 Cl     58 CCL4  -0.0812 
 449 CL     -26.6258   -15.0038     4.6319 Cl     58 CCL4  -0.0812 
 450 CL      18.1798   -15.1316     6.8904 Cl     59 CCL4  -0.0812 
 451 C       17.9322   -16.7024     7.6561 C.3    59 CCL4   0.3246 
 452 CL      16.5535   -16.6662     8.7396 Cl     59 CCL4  -0.0812 
 453 CL      19.3893   -17.1884     8.6013 Cl     59 CCL4  -0.0812 
 454 CL      17.7095   -17.9825     6.3771 Cl     59 CCL4  -0.0812 
 455 CL     -18.0039   -12.1582    13.7727 Cl     60 CCL4  -0.0812 
 456 C      -18.3332   -13.7857    13.1160 C.3    60 CCL4   0.3246 
 457 CL     -19.5841   -14.6246    14.0024 Cl     60 CCL4  -0.0812 
 458 CL     -16.9409   -14.7886    13.3497 Cl     60 CCL4  -0.0812 
 459 CL     -18.7461   -13.5370    11.3653 Cl     60 CCL4  -0.0812 
 460 CL     -17.7190   -20.1785    13.5714 Cl     61 CCL4  -0.0812 
 461 C      -19.1845   -19.3026    13.0467 C.3    61 CCL4   0.3246 
 462 CL     -18.6195   -18.0589    11.8939 Cl     61 CCL4  -0.0812 
 463 CL     -20.0768   -18.5538    14.3455 Cl     61 CCL4  -0.0812 
 464 CL     -20.2860   -20.3889    12.0615 Cl     61 CCL4  -0.0812 
 465 CL     -20.1918   -18.5333     8.4615 Cl     62 CCL4  -0.0812 
 466 C      -19.6477   -17.0242     7.7336 C.3    62 CCL4   0.3246 
 467 CL     -18.3768   -16.2435     8.7771 Cl     62 CCL4  -0.0812 
 468 CL     -20.9598   -15.7816     7.6385 Cl     62 CCL4  -0.0812 
 469 CL     -18.9796   -17.1351     6.1661 Cl     62 CCL4  -0.0812 
 470 CL     -17.4784   -18.6642    19.5775 Cl     63 CCL4  -0.0812 
 471 C      -18.4410   -20.0428    18.8574 C.3    63 CCL4   0.3246 
 472 CL     -17.5980   -20.6865    17.4035 Cl     63 CCL4  -0.0812 
 473 CL     -20.0090   -19.4112    18.3786 Cl     63 CCL4  -0.0812 
 474 CL     -18.7623   -21.4261    20.0191 Cl     63 CCL4  -0.0812 
 475 CL      17.1996   -14.5530    17.4028 Cl     64 CCL4  -0.0812 
 476 C       18.1005   -13.4803    18.4765 C.3    64 CCL4   0.3246 
 477 CL      19.2604   -12.3929    17.6680 Cl     64 CCL4  -0.0812 
 478 CL      19.0725   -14.5649    19.7245 Cl     64 CCL4  -0.0812 
 479 CL      16.9945   -12.5148    19.4562 Cl     64 CCL4  -0.0812 
 480 CL     -28.9289   -19.0794    15.7842 Cl     65 CCL4  -0.0812 
 481 C      -30.4672   -18.6550    16.3727 C.3    65 CCL4   0.3246 
 482 CL     -31.5491   -18.3361    14.9302 Cl     65 CCL4  -0.0812 
 483 CL     -30.3775   -17.2051    17.3103 Cl     65 CCL4  -0.0812 
 484 CL     -31.2020   -19.9379    17.3000 Cl     65 CCL4  -0.0812 
 485 CL     -18.9582    -1.8358    19.3307 Cl     66 CCL4  -0.0812 
 486 C      -18.5123    -0.9891    17.8404 C.3    66 CCL4   0.3246 
 487 CL     -17.8357     0.6042    18.3332 Cl     66 CCL4  -0.0812 
 488 CL     -20.1075    -0.7323    17.0907 Cl     66 CCL4  -0.0812 
 489 CL     -17.4407    -1.8335    16.6813 Cl     66 CCL4  -0.0812 
 490 CL     -23.8460    -7.5888     6.6231 Cl     67 CCL4  -0.0812 
 491 C      -23.9092    -6.1676     5.5494 C.3    67 CCL4   0.3246 
 492 CL     -22.9163    -6.3421     4.1084 Cl     67 CCL4  -0.0812 
 493 CL     -23.2210    -4.8324     6.6154 Cl     67 CCL4  -0.0812 
 494 CL     -25.5276    -5.8314     5.1000 Cl     67 CCL4  -0.0812 
 495 CL     -20.3544    -3.9844     5.2583 Cl     68 CCL4  -0.0812 
 496 C      -19.7425    -2.7119     4.1977 C.3    68 CCL4   0.3246 
 497 CL     -18.2390    -3.2480     3.4186 Cl     68 CCL4  -0.0812 
 498 CL     -19.3246    -1.1828     5.0366 Cl     68 CCL4  -0.0812 
 499 CL     -20.9555    -2.4412     2.9172 Cl     68 CCL4  -0.0812 
 500 CL     -20.2240   -10.3803    16.4835 Cl     69 CCL4  -0.0812 
 501 C      -21.1862    -9.5893    17.7450 C.3    69 CCL4   0.3246 
 502 CL     -20.1547    -8.9739    19.0473 Cl     69 CCL4  -0.0812 
 503 CL     -22.4016   -10.5711    18.4826 Cl     69 CCL4  -0.0812 
 504 CL     -21.8959    -7.9886    16.9879 Cl     69 CCL4  -0.0812 
 505 CL     -19.4540    -4.8594    15.1635 Cl     70 CCL4  -0.0812 
 506 C      -20.2675    -4.2353    13.8076 C.3    70 CCL4   0.3246 
 507 CL     -21.8479    -5.0550    13.7015 Cl     70 CCL4  -0.0812 
 508 CL     -19.5390    -4.5530    12.3067 Cl     70 CCL4  -0.0812 
 509 CL     -20.4864    -2.5359    14.1043 Cl     70 CCL4  -0.0812 
 510 CL      19.9595   -10.7105     4.2687 Cl     71 CCL4  -0.0812 
 511 C       18.2579   -10.6524     3.9832 C.3    71 CCL4   0.3246 
 512 CL      17.5519   -12.1157     4.4421 Cl     71 CCL4  -0.0812 
 513 CL      17.9221   -10.2019     2.2434 Cl     71 CCL4  -0.0812 
 514 CL      17.6031    -9.2841     5.0001 Cl     71 CCL4  -0.0812 
 515 CL      17.0534    -6.0317    18.5163 Cl     72 CCL4  -0.0812 
 516 C       17.7111    -7.2449    17.3913 C.3    72 CCL4   0.3246 
 517 CL      16.5687    -7.6570    16.1418 Cl     72 CCL4  -0.0812 
 518 CL      18.2054    -8.6600    18.2247 Cl     72 CCL4  -0.0812 
 519 CL      19.0508    -6.5345    16.5119 Cl     72 CCL4  -0.0812 
 520 CL      18.7914     1.7471    19.5671 Cl     73 CCL4  -0.0812 
 521 C       18.9088    -0.0135    19.4177 C.3    73 CCL4   0.3246 
 522 CL      20.5182    -0.5274    19.8390 Cl     73 CCL4  -0.0812 
 523 CL      18.8283    -0.4662    17.6855 Cl     73 CCL4  -0.0812 
 524 CL      17.7495    -0.7912    20.4659 Cl     73 CCL4  -0.0812 
 525 CL     -24.9472    -3.8195    17.7419 Cl     74 CCL4  -0.0812 
 526 C      -23.3133    -3.4292    18.3258 C.3    74 CCL4   0.3246 
 527 CL     -23.1970    -1.6571    18.6332 Cl     74 CCL4  -0.0812 
 528 CL     -22.0907    -3.9403    17.1090 Cl     74 CCL4  -0.0812 
 529 CL     -23.0255    -4.1596    19.9098 Cl     74 CCL4  -0.0812 
 530 CL     -25.9356    -8.7292     9.1488 Cl     75 CCL4  -0.0812 
 531 C      -25.4046    -7.3818    10.1291 C.3    75 CCL4   0.3246 
 532 CL     -25.6516    -5.8148     9.2312 Cl     75 CCL4  -0.0812 
 533 CL     -23.6524    -7.6126    10.3875 Cl     75 CCL4  -0.0812 
 534 CL     -26.3389    -7.3298    11.7023 Cl     75 CCL4  -0.0812 
 535 CL     -27.7695   -14.5359    12.0432 Cl     76 CCL4  -0.0812 
 536 C      -28.3196   -15.9078    13.0009 C.3    76 CCL4   0.3246 
 537 CL     -29.3061   -15.3560    14.3662 Cl     76 CCL4  -0.0812 
 538 CL     -26.8898   -16.7076    13.6025 Cl     76 CCL4  -0.0812 
 539 CL     -29.3564   -16.9766    11.9336 Cl     76 CCL4  -0.0812 
 540 CL     -22.9283   -12.4459     8.2408 Cl     77 CCL4  -0.0812 
 541 C      -21.4565   -11.4879     8.1365 C.3    77 CCL4   0.3246 
 542 CL     -19.9760   -12.5037     8.2711 Cl     77 CCL4  -0.0812 
 543 CL     -21.3706   -10.2013     9.3203 Cl     77 CCL4  -0.0812 
 544 CL     -21.3359   -10.6576     6.5362 Cl     77 CCL4  -0.0812 
 545 CL     -23.9291   -17.7631    11.9954 Cl     78 CCL4  -0.0812 
 546 C      -23.2059   -16.1804    12.0332 C.3    78 CCL4   0.3246 
 547 CL     -22.8735   -15.8139    13.8208 Cl     78 CCL4  -0.0812 
 548 CL     -24.3435   -14.9152    11.5085 Cl     78 CCL4  -0.0812 
 549 CL     -21.7217   -15.9857    11.1040 Cl     78 CCL4  -0.0812 
 550 CL     -22.3029    -8.9796    13.3072 Cl     79 CCL4  -0.0812 
 551 C      -22.8411   -10.7405    13.2224 C.3    79 CCL4   0.3246 
 552 CL     -24.2939   -10.7388    12.1536 Cl     79 CCL4  -0.0812 
 553 CL     -23.1452   -11.3364    14.8460 Cl     79 CCL4  -0.0812 
 554 CL     -21.4820   -11.7291    12.6193 Cl     79 CCL4  -0.0812 
 555 CL     -29.4569    21.1199     4.9353 Cl     80 CCL4  -0.0812 
 556 C      -28.5658    22.6608     5.2786 C.3    80 CCL4   0.3246 
 557 CL     -27.0489    22.2927     6.2452 Cl     80 CCL4  -0.0812 
 558 CL     -29.6525    23.7515     6.1882 Cl     80 CCL4  -0.0812 
 559 CL     -28.1275    23.4392     3.7410 Cl     80 CCL4  -0.0812 
 560 CL     -22.2554   -18.6623     5.2252 Cl     81 CCL4  -0.0812 
 561 C      -23.4666   -19.7346     4.3073 C.3    81 CCL4   0.3246 
 562 CL     -23.7076   -21.2394     5.2449 Cl     81 CCL4  -0.0812 
 563 CL     -22.7463   -20.1217     2.6938 Cl     81 CCL4  -0.0812 
 564 CL     -25.0227   -18.8901     4.2847 Cl     81 CCL4  -0.0812 
 565 CL     -24.8275    -2.5311     3.7157 Cl     82 CCL4  -0.0812 
 566 C      -24.2793    -0.9431     4.1157 C.3    82 CCL4   0.3246 
 567 CL     -23.9024     0.0209     2.7399 Cl     82 CCL4  -0.0812 
 568 CL     -22.9583    -0.9837     5.2443 Cl     82 CCL4  -0.0812 
 569 CL     -25.5812    -0.0479     4.9490 Cl     82 CCL4  -0.0812 
 570 CL     -26.9702   -15.0962     8.2173 Cl     83 CCL4  -0.0812 
 571 C      -26.1026   -16.5808     8.2723 C.3    83 CCL4   0.3246 
 572 CL     -26.6216   -17.8189     7.0598 Cl     83 CCL4  -0.0812 
 573 CL     -26.4576   -17.3866     9.9565 Cl     83 CCL4  -0.0812 
 574 CL     -24.3072   -16.4244     8.2295 Cl     83 CCL4  -0.0812 
 575 CL     -28.4541    23.7836    10.2457 Cl     84 CCL4  -0.0812 
 576 C      -28.0799    22.9653    11.7606 C.3    84 CCL4   0.3246 
 577 CL     -26.7838    23.7824    12.6125 Cl     84 CCL4  -0.0812 
 578 CL     -27.5401    21.2743    11.4652 Cl     84 CCL4  -0.0812 
 579 CL     -29.5643    22.7607    12.8429 Cl     84 CCL4  -0.0812 
 580 CL     -26.5899    -2.5306    13.8896 Cl     85 CCL4  -0.0812 
 581 C      -24.9502    -2.0894    13.3901 C.3    85 CCL4   0.3246 
 582 CL     -24.0140    -1.7263    14.7653 Cl     85 CCL4  -0.0812 
 583 CL     -25.0266    -0.5647    12.4963 Cl     85 CCL4  -0.0812 
 584 CL     -24.3418    -3.4284    12.4315 Cl     85 CCL4  -0.0812 
 585 CL     -24.6320   -11.2749     5.2742 Cl     86 CCL4  -0.0812 
 586 C      -26.3169   -10.9683     4.8306 C.3    86 CCL4   0.3246 
 587 CL     -27.3449   -11.7822     6.0197 Cl     86 CCL4  -0.0812 
 588 CL     -26.7329   -11.5660     3.1881 Cl     86 CCL4  -0.0812 
 589 CL     -26.8497    -9.2757     4.9293 Cl     86 CCL4  -0.0812 
 590 CL     -29.2013    -2.5615     7.8990 Cl     87 CCL4  -0.0812 
 591 C      -27.5169    -2.3098     8.3680 C.3    87 CCL4   0.3246 
 592 CL     -27.2173    -2.9303     9.9858 Cl     87 CCL4  -0.0812 
 593 CL     -27.3877    -0.4858     8.3762 Cl     87 CCL4  -0.0812 
 594 CL     -26.5197    -3.1219     7.0406 Cl     87 CCL4  -0.0812 
 595 CL     -24.2279    20.6304     8.5172 Cl     88 CCL4  -0.0812 
 596 C      -24.1440    22.1193     9.4551 C.3    88 CCL4   0.3246 
 597 CL     -24.1418    21.9198    11.1561 Cl     88 CCL4  -0.0812 
 598 CL     -25.4291    23.2321     8.9821 Cl     88 CCL4  -0.0812 
 599 CL     -22.7243    23.1825     8.9387 Cl     88 CCL4  -0.0812 
 600 CL     -24.5379   -15.0013    17.4415 Cl     89 CCL4  -0.0812 
 601 C      -25.7963   -13.9106    16.7948 C.3    89 CCL4   0.3246 
 602 CL     -27.5025   -14.6145    17.3229 Cl     89 CCL4  -0.0812 
 603 CL     -25.7758   -13.8387    15.0233 Cl     89 CCL4  -0.0812 
 604 CL     -25.8675   -12.3050    17.5791 Cl     89 CCL4  -0.0812 
 605 CL     -28.5240   -10.7878    15.8593 Cl     90 CCL4  -0.0812 
 606 C      -29.2018   -10.4383    14.2960 C.3    90 CCL4   0.3246 
 607 CL     -30.0203   -11.9356    13.8646 Cl     90 CCL4  -0.0812 
 608 CL     -28.0675   -10.0268    12.9629 Cl     90 CCL4  -0.0812 
 609 CL     -30.4420    -9.1551    14.3238 Cl     90 CCL4  -0.0812 
 610 CL     -26.1725   -17.9585    18.3338 Cl     91 CCL4  -0.0812 
 611 C      -24.6936   -18.6421    17.6443 C.3    91 CCL4   0.3246 
 612 CL     -24.4790   -17.8794    16.0054 Cl     91 CCL4  -0.0812 
 613 CL     -24.7981   -20.3937    17.5332 Cl     91 CCL4  -0.0812 
 614 CL     -23.2818   -18.2544    18.6293 Cl     91 CCL4  -0.0812 
 615 CL     -27.9539     2.2831    17.1408 Cl     92 CCL4  -0.0812 
 616 C      -26.6836     1.0378    16.9902 C.3    92 CCL4   0.3246 
 617 CL     -25.7018     1.0327    18.4882 Cl     92 CCL4  -0.0812 
 618 CL     -25.8293     1.4233    15.4128 Cl     92 CCL4  -0.0812 
 619 CL     -27.4000    -0.5980    16.8996 Cl     92 CCL4  -0.0812 
 620 CL     -29.5455    -9.1016     7.4075 Cl     93 CCL4  -0.0812 
 621 C      -29.9707    -7.3038     7.0362 C.3    93 CCL4   0.3246 
 622 CL     -29.0610    -6.1871     8.0471 Cl     93 CCL4  -0.0812 
 623 CL     -31.7052    -7.0830     7.4548 Cl     93 CCL4  -0.0812 
 624 CL     -29.5745    -6.9488     5.3711 Cl     93 CCL4  -0.0812 
 625 CL     -24.9235    -6.2929    15.3556 Cl     94 CCL4  -0.0812 
 626 C      -25.9412    -7.5550    16.1472 C.3    94 CCL4   0.3246 
 627 CL     -25.5913    -7.6498    17.9050 Cl     94 CCL4  -0.0812 
 628 CL     -25.6256    -9.1553    15.4637 Cl     94 CCL4  -0.0812 
 629 CL     -27.7051    -7.2527    15.8103 Cl     94 CCL4  -0.0812 
 630 CL     -30.6536    -4.3444    10.7378 Cl     95 CCL4  -0.0812 
 631 C      -30.2213    -5.6101    11.8805 C.3    95 CCL4   0.3246 
 632 CL     -31.5231    -5.5820    13.0228 Cl     95 CCL4  -0.0812 
 633 CL     -28.6498    -5.2476    12.7770 Cl     95 CCL4  -0.0812 
 634 CL     -29.9621    -7.1270    11.1055 Cl     95 CCL4  -0.0812 
 635 CL     -30.3523    -0.9238    11.9270 Cl     96 CCL4  -0.0812 
 636 C      -30.7271    -0.7169    13.6093 C.3    96 CCL4   0.3246 
 637 CL     -29.7836     0.7071    14.1234 Cl     96 CCL4  -0.0812 
 638 CL     -30.2200    -2.1511    14.4848 Cl     96 CCL4  -0.0812 
 639 CL     -32.4074    -0.4129    13.9870 Cl     96 CCL4  -0.0812 
 640 CL     -31.1099    13.0064   -17.1915 Cl     97 CCL4  -0.0812 
 641 C      -30.6086    13.0062   -15.5710 C.3    97 CCL4   0.3246 
 642 CL     -30.9451    11.5106   -14.7862 Cl     97 CCL4  -0.0812 
 643 CL     -31.1668    14.3616   -14.6849 Cl     97 CCL4  -0.0812 
 644 CL     -28.8165    13.1327   -15.5933 Cl     97 CCL4  -0.0812 
 645 CL     -19.4917     3.0586    24.0094 Cl     98 CCL4  -0.0812 
 646 C      -19.6603     2.3309    22.3953 C.3    98 CCL4   0.3246 
 647 CL     -21.0231     1.1666    22.2990 Cl     98 CCL4  -0.0812 
 648 CL     -18.0670     1.6985    21.9674 Cl     98 CCL4  -0.0812 
 649 CL     -20.0056     3.7177    21.2904 Cl     98 CCL4  -0.0812 
 650 CL      18.1798     9.8684    21.8904 Cl     99 CCL4  -0.0812 
 651 C       17.9322     8.2976    22.6561 C.3    99 CCL4   0.3246 
 652 CL      16.5535     8.3338    23.7396 Cl     99 CCL4  -0.0812 
 653 CL      19.3893     7.8116    23.6013 Cl     99 CCL4  -0.0812 
 654 CL      17.7095     7.0175    21.3771 Cl     99 CCL4  -0.0812 
 655 CL     -18.0039    12.8418   -11.2273 Cl    100 CCL4  -0.0812 
 656 C      -18.3332    11.2143   -11.8840 C.3   100 CCL4   0.3246 
 657 CL     -19.5841    10.3754   -10.9976 Cl    100 CCL4  -0.0812 
 658 CL     -16.9409    10.2114   -11.6503 Cl    100 CCL4  -0.0812 
 659 CL     -18.7461    11.4630   -13.6347 Cl    100 CCL4  -0.0812 
 660 CL     -17.7190     4.8215   -11.4286 Cl    101 CCL4  -0.0812 
 661 C      -19.1845     5.6974   -11.9533 C.3   101 CCL4   0.3246 
 662 CL     -18.6195     6.9411   -13.1061 Cl    101 CCL4  -0.0812 
 663 CL     -20.0768     6.4462   -10.6545 Cl    101 CCL4  -0.0812 
 664 CL     -20.2860     4.6111   -12.9385 Cl    101 CCL4  -0.0812 
 665 CL     -19.7938    12.0380    -6.4316 Cl    102 CCL4  -0.0812 
 666 C      -20.5505    10.4701    -5.9517 C.3   102 CCL4   0.3246 
 667 CL     -20.6586     9.4166    -7.4070 Cl    102 CCL4  -0.0812 
 668 CL     -22.2304    10.8126    -5.3173 Cl    102 CCL4  -0.0812 
 669 CL     -19.6042     9.5656    -4.6539 Cl    102 CCL4  -0.0812 
 670 CL     -20.1918     6.4667    23.4615 Cl    103 CCL4  -0.0812 
 671 C      -19.6477     7.9758    22.7336 C.3   103 CCL4   0.3246 
 672 CL     -18.3768     8.7565    23.7771 Cl    103 CCL4  -0.0812 
 673 CL     -20.9598     9.2184    22.6385 Cl    103 CCL4  -0.0812 
 674 CL     -18.9796     7.8649    21.1661 Cl    103 CCL4  -0.0812 
 675 CL      17.4653     3.5284    -0.4191 Cl    104 CCL4  -0.0812 
 676 C       18.7314     2.2499    -0.0872 C.3   104 CCL4   0.3246 
 677 CL      19.9387     2.9557     0.9953 Cl    104 CCL4  -0.0812 
 678 CL      19.4535     1.8346    -1.6640 Cl    104 CCL4  -0.0812 
 679 CL      17.9634     0.8375     0.7108 Cl    104 CCL4  -0.0812 
 680 CL      18.4024    12.1854    -1.6705 Cl    105 CCL4  -0.0812 
 681 C       19.1464    11.4867    -0.3168 C.3   105 CCL4   0.3246 
 682 CL      18.1232    11.5200     1.1328 Cl    105 CCL4  -0.0812 
 683 CL      20.5214    12.5067     0.1896 Cl    105 CCL4  -0.0812 
 684 CL      19.6957     9.8574    -0.6481 Cl    105 CCL4  -0.0812 
 685 CL     -17.4784     6.3358    -5.4225 Cl    106 CCL4  -0.0812 
 686 C      -18.4410     4.9572    -6.1426 C.3   106 CCL4   0.3246 
 687 CL     -17.5980     4.3135    -7.5965 Cl    106 CCL4  -0.0812 
 688 CL     -20.0090     5.5888    -6.6214 Cl    106 CCL4  -0.0812 
 689 CL     -18.7623     3.5739    -4.9809 Cl    106 CCL4  -0.0812 
 690 CL      17.1996    10.4470    -7.5972 Cl    107 CCL4  -0.0812 
 691 C       18.1005    11.5197    -6.5235 C.3   107 CCL4   0.3246 
 692 CL      19.2604    12.6071    -7.3320 Cl    107 CCL4  -0.0812 
 693 CL      19.0725    10.4351    -5.2755 Cl    107 CCL4  -0.0812 
 694 CL      16.9945    12.4852    -5.5438 Cl    107 CCL4  -0.0812 
 695 CL     -28.9289     5.9206    -9.2158 Cl    108 CCL4  -0.0812 
 696 C      -30.4672     6.3450    -8.6273 C.3   108 CCL4   0.3246 
 697 CL     -31.5491     6.6639   -10.0698 Cl    108 CCL4  -0.0812 
 698 CL     -30.3775     7.7949    -7.6897 Cl    108 CCL4  -0.0812 
 699 CL     -31.2020     5.0621    -7.7000 Cl    108 CCL4  -0.0812 
 700 CL     -27.5528    14.8593    -4.9467 Cl    109 CCL4  -0.0812 
 701 C      -26.9555    13.6570    -3.8401 C.3   109 CCL4   0.3246 
 702 CL     -27.7135    12.0874    -4.2444 Cl    109 CCL4  -0.0812 
 703 CL     -27.4172    14.0641    -2.1375 Cl    109 CCL4  -0.0812 
 704 CL     -25.1918    13.4472    -3.8532 Cl    109 CCL4  -0.0812 
 705 CL     -21.4629    14.7042    -2.5410 Cl    110 CCL4  -0.0812 
 706 C      -20.1137    13.8984    -1.6410 C.3   110 CCL4   0.3246 
 707 CL     -18.5159    14.2889    -2.4636 Cl    110 CCL4  -0.0812 
 708 CL     -20.3648    12.1399    -1.7037 Cl    110 CCL4  -0.0812 
 709 CL     -20.1074    14.5844     0.0239 Cl    110 CCL4  -0.0812 
 710 CL     -23.0277     3.9147   -10.1862 Cl    111 CCL4  -0.0812 
 711 C      -22.0254     2.4087    -9.9872 C.3   111 CCL4   0.3246 
 712 CL     -22.6828     1.6607    -8.4984 Cl    111 CCL4  -0.0812 
 713 CL     -20.3043     2.8613    -9.5258 Cl    111 CCL4  -0.0812 
 714 CL     -22.0947     1.4269   -11.4931 Cl    111 CCL4  -0.0812 
 715 CL     -18.4687    17.7631    -0.7577 Cl    112 CCL4  -0.0812 
 716 C      -18.5508    18.5248     0.7965 C.3   112 CCL4   0.3246 
 717 CL     -19.3705    17.4623     1.9993 Cl    112 CCL4  -0.0812 
 718 CL     -19.4345    20.0071     0.6605 Cl    112 CCL4  -0.0812 
 719 CL     -16.8862    18.8122     1.3922 Cl    112 CCL4  -0.0812 
 720 CL     -20.2240    14.6197    -8.5165 Cl    113 CCL4  -0.0812 
 721 C      -21.1862    15.4107    -7.2550 C.3   113 CCL4   0.3246 
 722 CL     -20.1547    16.0261    -5.9527 Cl    113 CCL4  -0.0812 
 723 CL     -22.4016    14.4289    -6.5174 Cl    113 CCL4  -0.0812 
 724 CL     -21.8959    17.0114    -8.0121 Cl    113 CCL4  -0.0812 
 725 CL      19.7092    21.1662    -2.5326 Cl    114 CCL4  -0.0812 
 726 C       18.1243    21.1565    -1.7314 C.3   114 CCL4   0.3246 
 727 CL      17.9875    19.9470    -0.4148 Cl    114 CCL4  -0.0812 
 728 CL      16.7779    20.9202    -2.9701 Cl    114 CCL4  -0.0812 
 729 CL      17.7660    22.8394    -1.1779 Cl    114 CCL4  -0.0812 
 730 CL      17.0534    18.9683    -6.4837 Cl    115 CCL4  -0.0812 
 731 C       17.7111    17.7551    -7.6087 C.3   115 CCL4   0.3246 
 732 CL      16.5687    17.3430    -8.8582 Cl    115 CCL4  -0.0812 
 733 CL      18.2054    16.3400    -6.7753 Cl    115 CCL4  -0.0812 
 734 CL      19.0508    18.4655    -8.4881 Cl    115 CCL4  -0.0812 
 735 CL      18.6545    15.6537    -0.8596 Cl    116 CCL4  -0.0812 
 736 C       18.0207    15.7863    -2.5184 C.3   116 CCL4   0.3246 
 737 CL      19.0301    14.9729    -3.7050 Cl    116 CCL4  -0.0812 
 738 CL      17.8099    17.5834    -2.9733 Cl    116 CCL4  -0.0812 
 739 CL      16.4595    15.0356    -2.6188 Cl    116 CCL4  -0.0812 
 740 CL     -28.2088    18.1560    -1.2811 Cl    117 CCL4  -0.0812 
 741 C      -28.0976    17.9731     0.4575 C.3   117 CCL4   0.3246 
 742 CL     -26.4165    18.6533     0.8904 Cl    117 CCL4  -0.0812 
 743 CL     -28.2052    16.2172     0.8496 Cl    117 CCL4  -0.0812 
 744 CL     -29.2916    18.9087     1.3372 Cl    117 CCL4  -0.0812 
 745 CL     -27.7695    10.4641   -12.9568 Cl    118 CCL4  -0.0812 
 746 C      -28.3196     9.0922   -11.9991 C.3   118 CCL4   0.3246 
 747 CL     -29.3061     9.6440   -10.6338 Cl    118 CCL4  -0.0812 
 748 CL     -26.8898     8.2924   -11.3975 Cl    118 CCL4  -0.0812 
 749 CL     -29.3564     8.0234   -13.0664 Cl    118 CCL4  -0.0812 
 750 CL     -22.6767    11.5315     2.3643 Cl    119 CCL4  -0.0812 
 751 C      -21.8786    10.2321     3.2803 C.3   119 CCL4   0.3246 
 752 CL     -23.2543     9.3962     4.0035 Cl    119 CCL4  -0.0812 
 753 CL     -20.8591    11.0138     4.4292 Cl    119 CCL4  -0.0812 
 754 CL     -21.0532     9.1670     2.2332 Cl    119 CCL4  -0.0812 
 755 CL     -22.9283    12.5541    23.2408 Cl    120 CCL4  -0.0812 
 756 C      -21.4565    13.5121    23.1365 C.3   120 CCL4   0.3246 
 757 CL     -19.9760    12.4963    23.2711 Cl    120 CCL4  -0.0812 
 758 CL     -21.3706    14.7987    24.3203 Cl    120 CCL4  -0.0812 
 759 CL     -21.3359    14.3424    21.5362 Cl    120 CCL4  -0.0812 
 760 CL     -23.9291     7.2369   -13.0046 Cl    121 CCL4  -0.0812 
 761 C      -23.2059     8.8196   -12.9668 C.3   121 CCL4   0.3246 
 762 CL     -22.8735     9.1861   -11.1792 Cl    121 CCL4  -0.0812 
 763 CL     -24.3435    10.0848   -13.4915 Cl    121 CCL4  -0.0812 
 764 CL     -21.7217     9.0143   -13.8960 Cl    121 CCL4  -0.0812 
 765 CL     -22.3029    16.0204   -11.6928 Cl    122 CCL4  -0.0812 
 766 C      -22.8411    14.2595   -11.7776 C.3   122 CCL4   0.3246 
 767 CL     -24.2939    14.2612   -12.8464 Cl    122 CCL4  -0.0812 
 768 CL     -23.1452    13.6636   -10.1540 Cl    122 CCL4  -0.0812 
 769 CL     -21.4820    13.2709   -12.3807 Cl    122 CCL4  -0.0812 
 770 CL     -26.9702     9.9038   -16.7827 Cl    123 CCL4  -0.0812 
 771 C      -26.1026     8.4192   -16.7277 C.3   123 CCL4   0.3246 
 772 CL     -26.6216     7.1811   -17.9402 Cl    123 CCL4  -0.0812 
 773 CL     -26.4576     7.6134   -15.0435 Cl    123 CCL4  -0.0812 
 774 CL     -24.3072     8.5756   -16.7705 Cl    123 CCL4  -0.0812 
 775 CL     -28.4541     4.8174   -14.7543 Cl    124 CCL4  -0.0812 
 776 C      -28.0799     3.9992   -13.2394 C.3   124 CCL4   0.3246 
 777 CL     -26.7838     4.8162   -12.3875 Cl    124 CCL4  -0.0812 
 778 CL     -27.5401     2.3082   -13.5348 Cl    124 CCL4  -0.0812 
 779 CL     -29.5643     3.7946   -12.1571 Cl    124 CCL4  -0.0812 
 780 CL     -24.2279     1.6643   -16.4828 Cl    125 CCL4  -0.0812 
 781 C      -24.1440     3.1532   -15.5449 C.3   125 CCL4   0.3246 
 782 CL     -24.1418     2.9536   -13.8439 Cl    125 CCL4  -0.0812 
 783 CL     -25.4291     4.2660   -16.0179 Cl    125 CCL4  -0.0812 
 784 CL     -22.7243     4.2164   -16.0613 Cl    125 CCL4  -0.0812 
 785 CL     -24.5379     9.9987    -7.5585 Cl    126 CCL4  -0.0812 
 786 C      -25.7963    11.0894    -8.2052 C.3   126 CCL4   0.3246 
 787 CL     -27.5025    10.3855    -7.6771 Cl    126 CCL4  -0.0812 
 788 CL     -25.7758    11.1613    -9.9767 Cl    126 CCL4  -0.0812 
 789 CL     -25.8675    12.6950    -7.4209 Cl    126 CCL4  -0.0812 
 790 CL     -28.5240    14.2122    -9.1407 Cl    127 CCL4  -0.0812 
 791 C      -29.2018    14.5617   -10.7040 C.3   127 CCL4   0.3246 
 792 CL     -30.0203    13.0644   -11.1354 Cl    127 CCL4  -0.0812 
 793 CL     -28.0675    14.9732   -12.0371 Cl    127 CCL4  -0.0812 
 794 CL     -30.4420    15.8449   -10.6762 Cl    127 CCL4  -0.0812 
 795 CL     -26.1725     7.0415    -6.6662 Cl    128 CCL4  -0.0812 
 796 C      -24.6936     6.3579    -7.3557 C.3   128 CCL4   0.3246 
 797 CL     -24.4790     7.1206    -8.9946 Cl    128 CCL4  -0.0812 
 798 CL     -24.7981     4.6063    -7.4668 Cl    128 CCL4  -0.0812 
 799 CL     -23.2818     6.7456    -6.3707 Cl    128 CCL4  -0.0812 
 800 CL     -23.6776     1.3882    -3.2540 Cl    129 CCL4  -0.0812 
 801 C      -22.1943     2.1969    -3.8493 C.3   129 CCL4   0.3246 
 802 CL     -22.7230     3.4138    -5.0480 Cl    129 CCL4  -0.0812 
 803 CL     -21.0918     0.9998    -4.5200 Cl    129 CCL4  -0.0812 
 804 CL     -21.3720     2.8654    -2.4513 Cl    129 CCL4  -0.0812 
 805 CL     -24.6829    15.9150     2.1605 Cl    130 CCL4  -0.0812 
 806 C      -23.0854    15.5464     1.4821 C.3   130 CCL4   0.3246 
 807 CL     -22.4375    17.0442     0.6270 Cl    130 CCL4  -0.0812 
 808 CL     -23.2731    14.2259     0.3512 Cl    130 CCL4  -0.0812 
 809 CL     -21.9329    15.0544     2.8315 Cl    130 CCL4  -0.0812 
 810 CL     -24.3427     8.8810     0.5682 Cl    131 CCL4  -0.0812 
 811 C      -25.3727     9.6564    -0.6868 C.3   131 CCL4   0.3246 
 812 CL     -26.4229     8.4257    -1.3866 Cl    131 CCL4  -0.0812 
 813 CL     -24.4181    10.4591    -1.9356 Cl    131 CCL4  -0.0812 
 814 CL     -26.4034    10.8531     0.2670 Cl    131 CCL4  -0.0812 
 815 CL     -28.9435     5.0539    -2.6961 Cl    132 CCL4  -0.0812 
 816 C      -27.8291     4.4203    -3.9984 C.3   132 CCL4   0.3246 
 817 CL     -27.6225     2.6877    -3.7945 Cl    132 CCL4  -0.0812 
 818 CL     -26.3838     5.3230    -3.6360 Cl    132 CCL4  -0.0812 
 819 CL     -28.4851     4.9199    -5.5611 Cl    132 CCL4  -0.0812 
 820 CL     -21.6458     8.3951    -1.3310 Cl    133 CCL4  -0.0812 
 821 C      -21.6513     6.7481    -1.7541 C.3   133 CCL4   0.3246 
 822 CL     -21.1872     5.8258    -0.2556 Cl    133 CCL4  -0.0812 
 823 CL     -20.4973     6.3749    -2.9621 Cl    133 CCL4  -0.0812 
 824 CL     -23.2517     6.2534    -2.1673 Cl    133 CCL4  -0.0812 
 825 CL     -26.3874     5.1394     0.7287 Cl    134 CCL4  -0.0812 
 826 C      -25.7188     3.4819     0.4734 C.3   134 CCL4   0.3246 
 827 CL     -24.1463     3.5725    -0.2744 Cl    134 CCL4  -0.0812 
 828 CL     -26.7769     2.5324    -0.5979 Cl    134 CCL4  -0.0812 
 829 CL     -25.4507     2.7865     2.1319 Cl    134 CCL4  -0.0812 
 830 CL     -22.8003    17.6232    -3.9793 Cl    135 CCL4  -0.0812 
 831 C      -24.1473    17.9654    -2.9476 C.3   135 CCL4   0.3246 
 832 CL     -25.4779    18.6767    -3.8741 Cl    135 CCL4  -0.0812 
 833 CL     -23.6417    19.4006    -2.0130 Cl    135 CCL4  -0.0812 
 834 CL     -24.8371    16.6254    -1.9149 Cl    135 CCL4  -0.0812 
 835 CL     -29.5455    15.8984    22.4075 Cl    136 CCL4  -0.0812 
 836 C      -29.9707    17.6962    22.0362 C.3   136 CCL4   0.3246 
 837 CL     -29.0610    18.8129    23.0471 Cl    136 CCL4  -0.0812 
 838 CL     -31.7052    17.9170    22.4548 Cl    136 CCL4  -0.0812 
 839 CL     -29.5745    18.0512    20.3711 Cl    136 CCL4  -0.0812 
 840 CL     -24.9235    18.7071    -9.6444 Cl    137 CCL4  -0.0812 
 841 C      -25.9412    17.4450    -8.8528 C.3   137 CCL4   0.3246 
 842 CL     -25.5913    17.3502    -7.0950 Cl    137 CCL4  -0.0812 
 843 CL     -25.6256    15.8447    -9.5363 Cl    137 CCL4  -0.0812 
 844 CL     -27.7051    17.7473    -9.1897 Cl    137 CCL4  -0.0812 
 845 CL     -31.1099    13.0064     7.8085 Cl    138 CCL4  -0.0812 
 846 C      -30.6086    13.0062     9.4290 C.3   138 CCL4   0.3246 
 847 CL     -30.9451    11.5106    10.2138 Cl    138 CCL4  -0.0812 
 848 CL     -31.1668    14.3616    10.3151 Cl    138 CCL4  -0.0812 
 849 CL     -28.8165    13.1327     9.4067 Cl    138 CCL4  -0.0812 
 850 CL     -19.4917     3.0586     9.0094 Cl    139 CCL4  -0.0812 
 851 C      -19.6603     2.3309     7.3953 C.3   139 CCL4   0.3246 
 852 CL     -21.0231     1.1666     7.2990 Cl    139 CCL4  -0.0812 
 853 CL     -18.0670     1.6985     6.9674 Cl    139 CCL4  -0.0812 
 854 CL     -20.0056     3.7177     6.2904 Cl    139 CCL4  -0.0812 
 855 CL     -29.0542    10.5932     3.1348 Cl    140 CCL4  -0.0812 
 856 C      -28.0534     9.2671     3.8885 C.3   140 CCL4   0.3246 
 857 CL     -27.6363     8.1885     2.5448 Cl    140 CCL4  -0.0812 
 858 CL     -28.9897     8.4704     5.1261 Cl    140 CCL4  -0.0812 
 859 CL     -26.6258     9.9962     4.6319 Cl    140 CCL4  -0.0812 
 860 CL      18.1798     9.8684     6.8904 Cl    141 CCL4  -0.0812 
 861 C       17.9322     8.2976     7.6561 C.3   141 CCL4   0.3246 
 862 CL      16.5535     8.3338     8.7396 Cl    141 CCL4  -0.0812 
 863 CL      19.3893     7.8116     8.6013 Cl    141 CCL4  -0.0812 
 864 CL      17.7095     7.0175     6.3771 Cl    141 CCL4  -0.0812 
 865 CL     -18.0039    12.8418    13.7727 Cl    142 CCL4  -0.0812 
 866 C      -18.3332    11.2143    13.1160 C.3   142 CCL4   0.3246 
 867 CL     -19.5841    10.3754    14.0024 Cl    142 CCL4  -0.0812 
 868 CL     -16.9409    10.2114    13.3497 Cl    142 CCL4  -0.0812 
 869 CL     -18.7461    11.4630    11.3653 Cl    142 CCL4  -0.0812 
 870 CL     -17.7190     4.8215    13.5714 Cl    143 CCL4  -0.0812 
 871 C      -19.1845     5.6974    13.0467 C.3   143 CCL4   0.3246 
 872 CL     -18.6195     6.9411    11.8939 Cl    143 CCL4  -0.0812 
 873 CL     -20.0768     6.4462    14.3455 Cl    143 CCL4  -0.0812 
 874 CL     -20.2860     4.6111    12.0615 Cl    143 CCL4  -0.0812 
 875 CL     -20.1918     6.4667     8.4615 Cl    144 CCL4  -0.0812 
 876 C      -19.6477     7.9758     7.7336 C.3   144 CCL4   0.3246 
 877 CL     -18.3768     8.7565     8.7771 Cl    144 CCL4  -0.0812 
 878 CL     -20.9598     9.2184     7.6385 Cl    144 CCL4  -0.0812 
 879 CL     -18.9796     7.8649     6.1661 Cl    144 CCL4  -0.0812 
 880 CL      17.1996    10.4470    17.4028 Cl    145 CCL4  -0.0812 
 881 C       18.1005    11.5197    18.4765 C.3   145 CCL4   0.3246 
 882 CL      19.2604    12.6071    17.6680 Cl    145 CCL4  -0.0812 
 883 CL      19.0725    10.4351    19.7245 Cl    145 CCL4  -0.0812 
 884 CL      16.9945    12.4852    19.4562 Cl    145 CCL4  -0.0812 
 885 CL     -28.9289     5.9206    15.7842 Cl    146 CCL4  -0.0812 
 886 C      -30.4672     6.3450    16.3727 C.3   146 CCL4   0.3246 
 887 CL     -31.5491     6.6639    14.9302 Cl    146 CCL4  -0.0812 
 888 CL     -30.3775     7.7949    17.3103 Cl    146 CCL4  -0.0812 
 889 CL     -31.2020     5.0621    17.3000 Cl    146 CCL4  -0.0812 
 890 CL     -23.0277     3.9147    14.8138 Cl    147 CCL4  -0.0812 
 891 C      -22.0254     2.4087    15.0128 C.3   147 CCL4   0.3246 
 892 CL     -22.6828     1.6607    16.5016 Cl    147 CCL4  -0.0812 
 893 CL     -20.3043     2.8613    15.4742 Cl    147 CCL4  -0.0812 
 894 CL     -22.0947     1.4269    13.5069 Cl    147 CCL4  -0.0812 
 895 CL     -20.2240    14.6197    16.4835 Cl    148 CCL4  -0.0812 
 896 C      -21.1862    15.4107    17.7450 C.3   148 CCL4   0.3246 
 897 CL     -20.1547    16.0261    19.0473 Cl    148 CCL4  -0.0812 
 898 CL     -22.4016    14.4289    18.4826 Cl    148 CCL4  -0.0812 
 899 CL     -21.8959    17.0114    16.9879 Cl    148 CCL4  -0.0812 
 900 CL      19.9595    14.2895     4.2687 Cl    149 CCL4  -0.0812 
 901 C       18.2579    14.3476     3.9832 C.3   149 CCL4   0.3246 
 902 CL      17.5519    12.8843     4.4421 Cl    149 CCL4  -0.0812 
 903 CL      17.9221    14.7981     2.2434 Cl    149 CCL4  -0.0812 
 904 CL      17.6031    15.7159     5.0001 Cl    149 CCL4  -0.0812 
 905 CL      17.0534    18.9683    18.5163 Cl    150 CCL4  -0.0812 
 906 C       17.7111    17.7551    17.3913 C.3   150 CCL4   0.3246 
 907 CL      16.5687    17.3430    16.1418 Cl    150 CCL4  -0.0812 
 908 CL      18.2054    16.3400    18.2247 Cl    150 CCL4  -0.0812 
 909 CL      19.0508    18.4655    16.5119 Cl    150 CCL4  -0.0812 
 910 CL     -27.7695    10.4641    12.0432 Cl    151 CCL4  -0.0812 
 911 C      -28.3196     9.0922    13.0009 C.3   151 CCL4   0.3246 
 912 CL     -29.3061     9.6440    14.3662 Cl    151 CCL4  -0.0812 
 913 CL     -26.8898     8.2924    13.6025 Cl    151 CCL4  -0.0812 
 914 CL     -29.3564     8.0234    11.9336 Cl    151 CCL4  -0.0812 
 915 CL     -22.9283    12.5541     8.2408 Cl    152 CCL4  -0.0812 
 916 C      -21.4565    13.5121     8.1365 C.3   152 CCL4   0.3246 
 917 CL     -19.9760    12.4963     8.2711 Cl    152 CCL4  -0.0812 
 918 CL     -21.3706    14.7987     9.3203 Cl    152 CCL4  -0.0812 
 919 CL     -21.3359    14.3424     6.5362 Cl    152 CCL4  -0.0812 
 920 CL     -23.9291     7.2369    11.9954 Cl    153 CCL4  -0.0812 
 921 C      -23.2059     8.8196    12.0332 C.3   153 CCL4   0.3246 
 922 CL     -22.8735     9.1861    13.8208 Cl    153 CCL4  -0.0812 
 923 CL     -24.3435    10.0848    11.5085 Cl    153 CCL4  -0.0812 
 924 CL     -21.7217     9.0143    11.1040 Cl    153 CCL4  -0.0812 
 925 CL     -22.3029    16.0204    13.3072 Cl    154 CCL4  -0.0812 
 926 C      -22.8411    14.2595    13.2224 C.3   154 CCL4   0.3246 
 927 CL     -24.2939    14.2612    12.1536 Cl    154 CCL4  -0.0812 
 928 CL     -23.1452    13.6636    14.8460 Cl    154 CCL4  -0.0812 
 929 CL     -21.4820    13.2709    12.6193 Cl    154 CCL4  -0.0812 
 930 CL     -29.4569     2.1537     4.9353 Cl    155 CCL4  -0.0812 
 931 C      -28.5658     3.6947     5.2786 C.3   155 CCL4   0.3246 
 932 CL     -27.0489     3.3266     6.2452 Cl    155 CCL4  -0.0812 
 933 CL     -29.6525     4.7854     6.1882 Cl    155 CCL4  -0.0812 
 934 CL     -28.1275     4.4730     3.7410 Cl    155 CCL4  -0.0812 
 935 CL     -22.2554     6.3377     5.2252 Cl    156 CCL4  -0.0812 
 936 C      -23.4666     5.2654     4.3073 C.3   156 CCL4   0.3246 
 937 CL     -23.7076     3.7606     5.2449 Cl    156 CCL4  -0.0812 
 938 CL     -22.7463     4.8783     2.6938 Cl    156 CCL4  -0.0812 
 939 CL     -25.0227     6.1099     4.2847 Cl    156 CCL4  -0.0812 
 940 CL     -26.9702     9.9038     8.2173 Cl    157 CCL4  -0.0812 
 941 C      -26.1026     8.4192     8.2723 C.3   157 CCL4   0.3246 
 942 CL     -26.6216     7.1811     7.0598 Cl    157 CCL4  -0.0812 
 943 CL     -26.4576     7.6134     9.9565 Cl    157 CCL4  -0.0812 
 944 CL     -24.3072     8.5756     8.2295 Cl    157 CCL4  -0.0812 
 945 CL     -28.4541     4.8174    10.2457 Cl    158 CCL4  -0.0812 
 946 C      -28.0799     3.9992    11.7606 C.3   158 CCL4   0.3246 
 947 CL     -26.7838     4.8162    12.6125 Cl    158 CCL4  -0.0812 
 948 CL     -27.5401     2.3082    11.4652 Cl    158 CCL4  -0.0812 
 949 CL     -29.5643     3.7946    12.8429 Cl    158 CCL4  -0.0812 
 950 CL     -24.6320    13.7251     5.2742 Cl    159 CCL4  -0.0812 
 951 C      -26.3169    14.0317     4.8306 C.3   159 CCL4   0.3246 
 952 CL     -27.3449    13.2178     6.0197 Cl    159 CCL4  -0.0812 
 953 CL     -26.7329    13.4340     3.1881 Cl    159 CCL4  -0.0812 
 954 CL     -26.8497    15.7243     4.9293 Cl    159 CCL4  -0.0812 
 955 CL     -24.2279     1.6643     8.5172 Cl    160 CCL4  -0.0812 
 956 C      -24.1440     3.1532     9.4551 C.3   160 CCL4   0.3246 
 957 CL     -24.1418     2.9536    11.1561 Cl    160 CCL4  -0.0812 
 958 CL     -25.4291     4.2660     8.9821 Cl    160 CCL4  -0.0812 
 959 CL     -22.7243     4.2164     8.9387 Cl    160 CCL4  -0.0812 
 960 CL     -24.5379     9.9987    17.4415 Cl    161 CCL4  -0.0812 
 961 C      -25.7963    11.0894    16.7948 C.3   161 CCL4   0.3246 
 962 CL     -27.5025    10.3855    17.3229 Cl    161 CCL4  -0.0812 
 963 CL     -25.7758    11.1613    15.0233 Cl    161 CCL4  -0.0812 
 964 CL     -25.8675    12.6950    17.5791 Cl    161 CCL4  -0.0812 
 965 CL     -28.5240    14.2122    15.8593 Cl    162 CCL4  -0.0812 
 966 C      -29.2018    14.5617    14.2960 C.3   162 CCL4   0.3246 
 967 CL     -30.0203    13.0644    13.8646 Cl    162 CCL4  -0.0812 
 968 CL     -28.0675    14.9732    12.9629 Cl    162 CCL4  -0.0812 
 969 CL     -30.4420    15.8449    14.3238 Cl    162 CCL4  -0.0812 
 970 CL     -26.1725     7.0415    18.3338 Cl    163 CCL4  -0.0812 
 971 C      -24.6936     6.3579    17.6443 C.3   163 CCL4   0.3246 
 972 CL     -24.4790     7.1206    16.0054 Cl    163 CCL4  -0.0812 
 973 CL     -24.7981     4.6063    17.5332 Cl    163 CCL4  -0.0812 
 974 CL     -23.2818     6.7456    18.6293 Cl    163 CCL4  -0.0812 
 975 CL     -29.5455    15.8984     7.4075 Cl    164 CCL4  -0.0812 
 976 C      -29.9707    17.6962     7.0362 C.3   164 CCL4   0.3246 
 977 CL     -29.0610    18.8129     8.0471 Cl    164 CCL4  -0.0812 
 978 CL     -31.7052    17.9170     7.4548 Cl    164 CCL4  -0.0812 
 979 CL     -29.5745    18.0512     5.3711 Cl    164 CCL4  -0.0812 
 980 CL     -24.9235    18.7071    15.3556 Cl    165 CCL4  -0.0812 
 981 C      -25.9412    17.4450    16.1472 C.3   165 CCL4   0.3246 
 982 CL     -25.5913    17.3502    17.9050 Cl    165 CCL4  -0.0812 
 983 CL     -25.6256    15.8447    15.4637 Cl    165 CCL4  -0.0812 
 984 CL     -27.7051    17.7473    15.8103 Cl    165 CCL4  -0.0812 
 985 CL     -17.7668   -10.0394   -14.0506 Cl    166 CCL4  -0.0812 
 986 C      -18.0011    -8.3980   -13.3865 C.3   166 CCL4   0.3246 
 987 CL     -19.4959    -7.7710   -14.0947 Cl    166 CCL4  -0.0812 
 988 CL     -16.5781    -7.3414   -13.6089 Cl    166 CCL4  -0.0812 
 989 CL     -18.2128    -8.6087   -11.6231 Cl    166 CCL4  -0.0812 
 990 CL      -6.1099   -11.9936   -17.1915 Cl    167 CCL4  -0.0812 
 991 C       -5.6086   -11.9938   -15.5710 C.3   167 CCL4   0.3246 
 992 CL      -5.9451   -13.4894   -14.7862 Cl    167 CCL4  -0.0812 
 993 CL      -6.1668   -10.6384   -14.6849 Cl    167 CCL4  -0.0812 
 994 CL      -3.8165   -11.8673   -15.5933 Cl    167 CCL4  -0.0812 
 995 CL      -8.2252   -21.1632   -11.4038 Cl    168 CCL4  -0.0812 
 996 C       -8.8230   -20.1453   -12.7990 C.3   168 CCL4   0.3246 
 997 CL     -10.0615   -20.9241   -13.8815 Cl    168 CCL4  -0.0812 
 998 CL      -7.4454   -19.5845   -13.7980 Cl    168 CCL4  -0.0812 
 999 CL      -9.5539   -18.6066   -12.0585 Cl    168 CCL4  -0.0812 
1000 CL     -13.9568    -9.6871   -12.1569 Cl    169 CCL4  -0.0812 
1001 C      -13.6706   -11.4421   -12.0298 C.3   169 CCL4   0.3246 
1002 CL     -13.9154   -11.9572   -10.3390 Cl    169 CCL4  -0.0812 
1003 CL     -12.1315   -12.0415   -12.5932 Cl    169 CCL4  -0.0812 
1004 CL     -14.9246   -12.2553   -12.9976 Cl    169 CCL4  -0.0812 
1005 CL      -6.8521   -17.5350     2.8566 Cl    170 CCL4  -0.0812 
1006 C       -8.5239   -16.9377     2.7297 C.3   170 CCL4   0.3246 
1007 CL      -8.8798   -16.6857     0.9360 Cl    170 CCL4  -0.0812 
1008 CL      -8.8534   -15.4142     3.5694 Cl    170 CCL4  -0.0812 
1009 CL      -9.7578   -18.1607     3.1545 Cl    170 CCL4  -0.0812 
1010 CL     -12.5075    -0.8051   -11.9746 Cl    171 CCL4  -0.0812 
1011 C      -11.9733     0.7563   -12.6600 C.3   171 CCL4   0.3246 
1012 CL     -12.9014     2.1713   -12.1262 Cl    171 CCL4  -0.0812 
1013 CL     -11.8266     0.7666   -14.4075 Cl    171 CCL4  -0.0812 
1014 CL     -10.3398     1.0221   -12.0028 Cl    171 CCL4  -0.0812 
1015 CL      -8.5111   -12.6048   -12.3242 Cl    172 CCL4  -0.0812 
1016 C       -9.0196   -14.3321   -12.1081 C.3   172 CCL4   0.3246 
1017 CL      -7.5925   -15.2755   -11.6439 Cl    172 CCL4  -0.0812 
1018 CL      -9.6807   -15.0148   -13.5605 Cl    172 CCL4  -0.0812 
1019 CL     -10.1152   -14.4474   -10.6571 Cl    172 CCL4  -0.0812 
1020 CL     -13.6167    23.4837   -16.2208 Cl    173 CCL4  -0.0812 
1021 C      -15.3981    22.9578   -16.0715 C.3   173 CCL4   0.3246 
1022 CL     -15.4135    21.2647   -15.8652 Cl    173 CCL4  -0.0812 
1023 CL     -16.3674    23.3895   -17.5593 Cl    173 CCL4  -0.0812 
1024 CL     -16.0595    23.8876   -14.6487 Cl    173 CCL4  -0.0812 
1025 CL      -9.4274    23.3947    -8.3170 Cl    174 CCL4  -0.0812 
1026 C       -9.9283    21.7589    -7.9616 C.3   174 CCL4   0.3246 
1027 CL      -8.6958    20.6284    -8.5048 Cl    174 CCL4  -0.0812 
1028 CL     -11.3657    21.3497    -8.9158 Cl    174 CCL4  -0.0812 
1029 CL     -10.2578    21.5960    -6.2752 Cl    174 CCL4  -0.0812 
1030 CL     -13.1045   -19.8480   -12.3789 Cl    175 CCL4  -0.0812 
1031 C      -13.8485   -19.3574   -10.8276 C.3   175 CCL4   0.3246 
1032 CL     -12.6245   -18.8687    -9.7549 Cl    175 CCL4  -0.0812 
1033 CL     -14.7254   -20.7710   -10.2117 Cl    175 CCL4  -0.0812 
1034 CL     -15.0390   -18.0147   -11.1325 Cl    175 CCL4  -0.0812 
1035 CL       3.0393    -4.1858   -14.8651 Cl    176 CCL4  -0.0812 
1036 C        2.9939    -2.5657   -15.5475 C.3   176 CCL4   0.3246 
1037 CL       3.2390    -1.2913   -14.1903 Cl    176 CCL4  -0.0812 
1038 CL       1.3785    -2.1699   -16.2026 Cl    176 CCL4  -0.0812 
1039 CL       4.1603    -2.1400   -16.8033 Cl    176 CCL4  -0.0812 
1040 CL      -4.9807     1.9273   -16.2322 Cl    177 CCL4  -0.0812 
1041 C       -6.7795     1.5117   -16.2365 C.3   177 CCL4   0.3246 
1042 CL      -6.9898    -0.1876   -16.8442 Cl    177 CCL4  -0.0812 
1043 CL      -7.6226     2.6334   -17.2876 Cl    177 CCL4  -0.0812 
1044 CL      -7.4505     1.7947   -14.5719 Cl    177 CCL4  -0.0812 
1045 CL     -13.0639    -0.4140    22.7292 Cl    178 CCL4  -0.0812 
1046 C      -11.5423    -0.1249    21.8713 C.3   178 CCL4   0.3246 
1047 CL     -11.2060     1.6470    22.3104 Cl    178 CCL4  -0.0812 
1048 CL     -11.7767    -0.1927    20.1209 Cl    178 CCL4  -0.0812 
1049 CL     -10.1820    -1.2109    22.2544 Cl    178 CCL4  -0.0812 
1050 CL     -11.0567   -12.4234     3.2574 Cl    179 CCL4  -0.0812 
1051 C      -11.3627   -12.2732     1.5521 C.3   179 CCL4   0.3246 
1052 CL     -10.2924   -11.1050     0.7691 Cl    179 CCL4  -0.0812 
1053 CL     -13.0331   -11.8003     1.2042 Cl    179 CCL4  -0.0812 
1054 CL     -11.1981   -13.8954     0.7360 Cl    179 CCL4  -0.0812 
1055 CL     -18.1581   -10.8331     3.6461 Cl    180 CCL4  -0.0812 
1056 C      -17.4559   -11.8309     2.2901 C.3   180 CCL4   0.3246 
1057 CL     -16.0721   -12.6669     2.9645 Cl    180 CCL4  -0.0812 
1058 CL     -16.9010   -10.6538     1.1199 Cl    180 CCL4  -0.0812 
1059 CL     -18.5722   -12.9987     1.6788 Cl    180 CCL4  -0.0812 
1060 CL      -6.8801   -15.1316    21.8904 Cl    181 CCL4  -0.0812 
1061 C       -7.1276   -16.7024    22.6561 C.3   181 CCL4   0.3246 
1062 CL      -8.5064   -16.6662    23.7396 Cl    181 CCL4  -0.0812 
1063 CL      -5.6705   -17.1884    23.6013 Cl    181 CCL4  -0.0812 
1064 CL      -7.3503   -17.9825    21.3771 Cl    181 CCL4  -0.0812 
1065 CL     -10.0828   -10.5171    21.9424 Cl    182 CCL4  -0.0812 
1066 C      -10.4689   -11.9723    22.9904 C.3   182 CCL4   0.3246 
1067 CL     -12.1725   -11.9470    23.6010 Cl    182 CCL4  -0.0812 
1068 CL      -9.3425   -12.1168    24.3890 Cl    182 CCL4  -0.0812 
1069 CL     -10.0856   -13.3757    21.9615 Cl    182 CCL4  -0.0812 
1070 CL     -12.2317   -17.5863   -15.1411 Cl    183 CCL4  -0.0812 
1071 C      -13.2458   -16.3469   -14.4172 C.3   183 CCL4   0.3246 
1072 CL     -12.9165   -14.8219   -15.2608 Cl    183 CCL4  -0.0812 
1073 CL     -12.6249   -16.1030   -12.6991 Cl    183 CCL4  -0.0812 
1074 CL     -14.9213   -16.8734   -14.4445 Cl    183 CCL4  -0.0812 
1075 CL       6.9961   -12.1582   -11.2273 Cl    184 CCL4  -0.0812 
1076 C        6.6668   -13.7857   -11.8840 C.3   184 CCL4   0.3246 
1077 CL       5.4159   -14.6246   -10.9976 Cl    184 CCL4  -0.0812 
1078 CL       8.0591   -14.7886   -11.6503 Cl    184 CCL4  -0.0812 
1079 CL       6.2539   -13.5370   -13.6347 Cl    184 CCL4  -0.0812 
1080 CL       7.2810   -20.1785   -11.4286 Cl    185 CCL4  -0.0812 
1081 C        5.8155   -19.3026   -11.9533 C.3   185 CCL4   0.3246 
1082 CL       6.3805   -18.0589   -13.1061 Cl    185 CCL4  -0.0812 
1083 CL       4.9232   -18.5538   -10.6545 Cl    185 CCL4  -0.0812 
1084 CL       4.7140   -20.3889   -12.9385 Cl    185 CCL4  -0.0812 
1085 CL       5.2062   -12.9620    -6.4316 Cl    186 CCL4  -0.0812 
1086 C        4.4495   -14.5299    -5.9517 C.3   186 CCL4   0.3246 
1087 CL       4.3414   -15.5834    -7.4070 Cl    186 CCL4  -0.0812 
1088 CL       2.7696   -14.1874    -5.3173 Cl    186 CCL4  -0.0812 
1089 CL       5.3958   -15.4344    -4.6539 Cl    186 CCL4  -0.0812 
1090 CL     -16.1193     1.5193   -12.7723 Cl    187 CCL4  -0.0812 
1091 C      -17.4762     0.7565   -11.8829 C.3   187 CCL4   0.3246 
1092 CL     -18.9951     1.3391   -12.6452 Cl    187 CCL4  -0.0812 
1093 CL     -17.4672     1.3478   -10.2324 Cl    187 CCL4  -0.0812 
1094 CL     -17.2079    -0.9809   -11.9781 Cl    187 CCL4  -0.0812 
1095 CL       4.8082   -18.5333    23.4615 Cl    188 CCL4  -0.0812 
1096 C        5.3523   -17.0242    22.7336 C.3   188 CCL4   0.3246 
1097 CL       6.6232   -16.2435    23.7771 Cl    188 CCL4  -0.0812 
1098 CL       4.0402   -15.7816    22.6385 Cl    188 CCL4  -0.0812 
1099 CL       6.0204   -17.1351    21.1661 Cl    188 CCL4  -0.0812 
1100 CL     -13.6195   -18.1147    -3.7568 Cl    189 CCL4  -0.0812 
1101 C      -13.1473   -19.5807    -4.7466 C.3   189 CCL4   0.3246 
1102 CL     -14.6913   -20.0974    -5.4994 Cl    189 CCL4  -0.0812 
1103 CL     -12.3697   -20.9009    -3.7676 Cl    189 CCL4  -0.0812 
1104 CL     -12.0679   -18.9957    -6.0038 Cl    189 CCL4  -0.0812 
1105 CL      -6.6574   -12.8146    -1.6705 Cl    190 CCL4  -0.0812 
1106 C       -5.9134   -13.5133    -0.3168 C.3   190 CCL4   0.3246 
1107 CL      -6.9367   -13.4800     1.1328 Cl    190 CCL4  -0.0812 
1108 CL      -4.5384   -12.4933     0.1896 Cl    190 CCL4  -0.0812 
1109 CL      -5.3641   -15.1426    -0.6481 Cl    190 CCL4  -0.0812 
1110 CL       7.5216   -18.6642    -5.4225 Cl    191 CCL4  -0.0812 
1111 C        6.5590   -20.0428    -6.1426 C.3   191 CCL4   0.3246 
1112 CL       7.4020   -20.6865    -7.5965 Cl    191 CCL4  -0.0812 
1113 CL       4.9910   -19.4112    -6.6214 Cl    191 CCL4  -0.0812 
1114 CL       6.2377   -21.4261    -4.9809 Cl    191 CCL4  -0.0812 
1115 CL      -7.8602   -14.5530    -7.5972 Cl    192 CCL4  -0.0812 
1116 C       -6.9593   -13.4803    -6.5235 C.3   192 CCL4   0.3246 
1117 CL      -5.7994   -12.3929    -7.3320 Cl    192 CCL4  -0.0812 
1118 CL      -5.9873   -14.5649    -5.2755 Cl    192 CCL4  -0.0812 
1119 CL      -8.0653   -12.5148    -5.5438 Cl    192 CCL4  -0.0812 
1120 CL      -8.9375   -11.2334    -8.7789 Cl    193 CCL4  -0.0812 
1121 C      -10.5115   -10.9557    -7.9093 C.3   193 CCL4   0.3246 
1122 CL     -10.2383   -10.0077    -6.4770 Cl    193 CCL4  -0.0812 
1123 CL     -11.2128   -12.5730    -7.4638 Cl    193 CCL4  -0.0812 
1124 CL     -11.5414   -10.0737    -8.9611 Cl    193 CCL4  -0.0812 
1125 CL      -3.9289   -19.0794    -9.2158 Cl    194 CCL4  -0.0812 
1126 C       -5.4672   -18.6550    -8.6273 C.3   194 CCL4   0.3246 
1127 CL      -6.5491   -18.3361   -10.0698 Cl    194 CCL4  -0.0812 
1128 CL      -5.3775   -17.2051    -7.6897 Cl    194 CCL4  -0.0812 
1129 CL      -6.2020   -19.9379    -7.7000 Cl    194 CCL4  -0.0812 
1130 CL      -7.1120   -17.7298    -2.8056 Cl    195 CCL4  -0.0812 
1131 C       -8.1424   -18.7113    -3.7676 C.3   195 CCL4   0.3246 
1132 CL      -8.6210   -17.8402    -5.2397 Cl    195 CCL4  -0.0812 
1133 CL      -9.5528   -19.0681    -2.7978 Cl    195 CCL4  -0.0812 
1134 CL      -7.3431   -20.1944    -4.1815 Cl    195 CCL4  -0.0812 
1135 CL      -2.5528   -10.1407    -4.9467 Cl    196 CCL4  -0.0812 
1136 C       -1.9555   -11.3430    -3.8401 C.3   196 CCL4   0.3246 
1137 CL      -2.7135   -12.9126    -4.2444 Cl    196 CCL4  -0.0812 
1138 CL      -2.4172   -10.9359    -2.1375 Cl    196 CCL4  -0.0812 
1139 CL      -0.1918   -11.5528    -3.8532 Cl    196 CCL4  -0.0812 
1140 CL     -12.8440   -14.8075    -2.0321 Cl    197 CCL4  -0.0812 
1141 C      -11.3590   -14.5201    -2.9753 C.3   197 CCL4   0.3246 
1142 CL     -11.7300   -14.8543    -4.6607 Cl    197 CCL4  -0.0812 
1143 CL     -10.1565   -15.5870    -2.3256 Cl    197 CCL4  -0.0812 
1144 CL     -10.9329   -12.7529    -2.8693 Cl    197 CCL4  -0.0812 
1145 CL       3.5371   -10.2958    -2.5410 Cl    198 CCL4  -0.0812 
1146 C        4.8863   -11.1016    -1.6410 C.3   198 CCL4   0.3246 
1147 CL       6.4841   -10.7111    -2.4636 Cl    198 CCL4  -0.0812 
1148 CL       4.6352   -12.8601    -1.7037 Cl    198 CCL4  -0.0812 
1149 CL       4.8926   -10.4156     0.0239 Cl    198 CCL4  -0.0812 
1150 CL     -14.5421   -15.0850    -8.7572 Cl    199 CCL4  -0.0812 
1151 C      -15.6372   -16.0473    -7.8222 C.3   199 CCL4   0.3246 
1152 CL     -17.3237   -15.7547    -8.2877 Cl    199 CCL4  -0.0812 
1153 CL     -15.5606   -15.4864    -6.1874 Cl    199 CCL4  -0.0812 
1154 CL     -15.2196   -17.7601    -7.9325 Cl    199 CCL4  -0.0812 
1155 CL       6.0418    -1.8358    -5.6693 Cl    200 CCL4  -0.0812 
1156 C        6.4877    -0.9891    -7.1596 C.3   200 CCL4   0.3246 
1157 CL       7.1643     0.6042    -6.6668 Cl    200 CCL4  -0.0812 
1158 CL       4.8925    -0.7323    -7.9093 Cl    200 CCL4  -0.0812 
1159 CL       7.5593    -1.8335    -8.3187 Cl    200 CCL4  -0.0812 
1160 CL     -11.3488   -20.4664    -0.4189 Cl    201 CCL4  -0.0812 
1161 C      -12.6307   -19.3778     0.2098 C.3   201 CCL4   0.3246 
1162 CL     -12.8577   -19.9119     1.9201 Cl    201 CCL4  -0.0812 
1163 CL     -14.0785   -19.5024    -0.7593 Cl    201 CCL4  -0.0812 
1164 CL     -12.1060   -17.6748     0.1840 Cl    201 CCL4  -0.0812 
1165 CL      -8.8948    -6.8711   -14.3450 Cl    202 CCL4  -0.0812 
1166 C       -9.5851    -8.0012   -13.1486 C.3   202 CCL4   0.3246 
1167 CL     -10.7212    -9.0966   -14.1475 Cl    202 CCL4  -0.0812 
1168 CL     -10.5379    -6.9524   -11.9977 Cl    202 CCL4  -0.0812 
1169 CL      -8.4163    -9.0703   -12.3843 Cl    202 CCL4  -0.0812 
1170 CL      -9.5911    -2.8688    -6.9635 Cl    203 CCL4  -0.0812 
1171 C       -9.9792    -3.1843    -8.7204 C.3   203 CCL4   0.3246 
1172 CL     -11.1782    -4.6057    -8.7371 Cl    203 CCL4  -0.0812 
1173 CL      -8.4360    -3.7715    -9.4833 Cl    203 CCL4  -0.0812 
1174 CL     -10.6232    -1.8030    -9.4701 Cl    203 CCL4  -0.0812 
1175 CL     -13.5048    -4.1256   -11.5476 Cl    204 CCL4  -0.0812 
1176 C      -14.6295    -4.9166   -10.4512 C.3   204 CCL4   0.3246 
1177 CL     -14.2304    -6.5979   -10.1950 Cl    204 CCL4  -0.0812 
1178 CL     -16.2737    -4.7942   -11.1977 Cl    204 CCL4  -0.0812 
1179 CL     -14.6384    -4.1568    -8.8268 Cl    204 CCL4  -0.0812 
1180 CL       6.5313    -7.2369    -0.7577 Cl    205 CCL4  -0.0812 
1181 C        6.4492    -6.4752     0.7965 C.3   205 CCL4   0.3246 
1182 CL       5.6295    -7.5377     1.9993 Cl    205 CCL4  -0.0812 
1183 CL       5.5655    -4.9929     0.6605 Cl    205 CCL4  -0.0812 
1184 CL       8.1138    -6.1878     1.3922 Cl    205 CCL4  -0.0812 
1185 CL      -8.7774    -3.8934   -15.9102 Cl    206 CCL4  -0.0812 
1186 C       -9.7689    -3.0632   -14.6313 C.3   206 CCL4   0.3246 
1187 CL      -9.6911    -3.7412   -13.0337 Cl    206 CCL4  -0.0812 
1188 CL     -11.4947    -2.9678   -15.0141 Cl    206 CCL4  -0.0812 
1189 CL      -9.1588    -1.3676   -14.5967 Cl    206 CCL4  -0.0812 
1190 CL     -14.3724     1.5408    -6.7703 Cl    207 CCL4  -0.0812 
1191 C      -13.8272    -0.1503    -7.0621 C.3   207 CCL4   0.3246 
1192 CL     -14.7873    -1.2491    -6.0848 Cl    207 CCL4  -0.0812 
1193 CL     -12.1624    -0.4254    -6.6615 Cl    207 CCL4  -0.0812 
1194 CL     -14.0186    -0.5829    -8.7403 Cl    207 CCL4  -0.0812 
1195 CL     -13.8123    -8.6805   -15.7958 Cl    208 CCL4  -0.0812 
1196 C      -13.5516    -6.9679   -15.8909 C.3   208 CCL4   0.3246 
1197 CL     -14.6736    -6.1132   -16.8550 Cl    208 CCL4  -0.0812 
1198 CL     -11.8281    -6.7703   -16.6622 Cl    208 CCL4  -0.0812 
1199 CL     -13.3127    -6.2860   -14.2323 Cl    208 CCL4  -0.0812 
1200 CL       4.7760   -10.3803    -8.5165 Cl    209 CCL4  -0.0812 
1201 C        3.8138    -9.5893    -7.2550 C.3   209 CCL4   0.3246 
1202 CL       4.8453    -8.9739    -5.9527 Cl    209 CCL4  -0.0812 
1203 CL       2.5984   -10.5711    -6.5174 Cl    209 CCL4  -0.0812 
1204 CL       3.1041    -7.9886    -8.0121 Cl    209 CCL4  -0.0812 
1205 CL       5.5460    -4.8594    -9.8365 Cl    210 CCL4  -0.0812 
1206 C        4.7325    -4.2353   -11.1924 C.3   210 CCL4   0.3246 
1207 CL       3.1521    -5.0550   -11.2985 Cl    210 CCL4  -0.0812 
1208 CL       5.4610    -4.5530   -12.6933 Cl    210 CCL4  -0.0812 
1209 CL       4.5136    -2.5359   -10.8957 Cl    210 CCL4  -0.0812 
1210 CL      -5.3506    -3.8338    -2.5326 Cl    211 CCL4  -0.0812 
1211 C       -6.9355    -3.8435    -1.7314 C.3   211 CCL4   0.3246 
1212 CL      -7.0724    -5.0530    -0.4148 Cl    211 CCL4  -0.0812 
1213 CL      -8.2819    -4.0798    -2.9701 Cl    211 CCL4  -0.0812 
1214 CL      -7.2939    -2.1606    -1.1779 Cl    211 CCL4  -0.0812 
1215 CL      -8.0064    -6.0317    -6.4837 Cl    212 CCL4  -0.0812 
1216 C       -7.3488    -7.2449    -7.6087 C.3   212 CCL4   0.3246 
1217 CL      -8.4912    -7.6570    -8.8582 Cl    212 CCL4  -0.0812 
1218 CL      -6.8544    -8.6600    -6.7753 Cl    212 CCL4  -0.0812 
1219 CL      -6.0091    -6.5345    -8.4881 Cl    212 CCL4  -0.0812 
1220 CL      -3.4849    -4.1644    -8.0144 Cl    213 CCL4  -0.0812 
1221 C       -3.9801    -4.3676    -6.2101 C.3   213 CCL4   0.3246 
1222 CL      -5.6575    -3.6691    -5.9151 Cl    213 CCL4  -0.0812 
1223 CL      -2.7536    -3.4221    -5.2269 Cl    213 CCL4  -0.0812 
1224 CL      -3.8852    -6.0703    -5.7300 Cl    213 CCL4  -0.0812 
1225 CL     -12.4875    -9.1484    -1.4025 Cl    214 CCL4  -0.0812 
1226 C      -14.0115    -9.5579    -2.1818 C.3   214 CCL4   0.3246 
1227 CL     -15.4049    -8.8132    -1.4593 Cl    214 CCL4  -0.0812 
1228 CL     -14.1700   -11.3395    -2.2065 Cl    214 CCL4  -0.0812 
1229 CL     -13.9286    -9.0580    -3.8423 Cl    214 CCL4  -0.0812 
1230 CL     -12.5955    -3.9363    -4.9765 Cl    215 CCL4  -0.0812 
1231 C      -12.9541    -5.7206    -4.9611 C.3   215 CCL4   0.3246 
1232 CL     -14.1012    -6.2942    -6.1402 Cl    215 CCL4  -0.0812 
1233 CL     -13.7176    -5.9544    -3.3094 Cl    215 CCL4  -0.0812 
1234 CL     -11.4665    -6.7290    -5.0183 Cl    215 CCL4  -0.0812 
1235 CL      -6.2685     1.7471    -5.4329 Cl    216 CCL4  -0.0812 
1236 C       -6.1510    -0.0135    -5.5823 C.3   216 CCL4   0.3246 
1237 CL      -4.5417    -0.5274    -5.1610 Cl    216 CCL4  -0.0812 
1238 CL      -6.2316    -0.4662    -7.3145 Cl    216 CCL4  -0.0812 
1239 CL      -7.3103    -0.7912    -4.5341 Cl    216 CCL4  -0.0812 
1240 CL     -16.0552    -1.4181    -2.5558 Cl    217 CCL4  -0.0812 
1241 C      -15.5163    -2.4908    -1.1515 C.3   217 CCL4   0.3246 
1242 CL     -16.3475    -4.0338    -1.2359 Cl    217 CCL4  -0.0812 
1243 CL     -16.0009    -1.6797     0.3241 Cl    217 CCL4  -0.0812 
1244 CL     -13.6999    -2.7115    -1.3656 Cl    217 CCL4  -0.0812 
1245 CL     -10.6485    -6.2714    -1.4264 Cl    218 CCL4  -0.0812 
1246 C      -11.0974    -5.7818     0.2213 C.3   218 CCL4   0.3246 
1247 CL     -10.4205    -7.1972     1.1556 Cl    218 CCL4  -0.0812 
1248 CL     -12.8756    -5.7148     0.4442 Cl    218 CCL4  -0.0812 
1249 CL     -10.4196    -4.2202     0.6680 Cl    218 CCL4  -0.0812 
1250 CL      -6.4053    -9.3463    -0.8596 Cl    219 CCL4  -0.0812 
1251 C       -7.0391    -9.2137    -2.5184 C.3   219 CCL4   0.3246 
1252 CL      -6.0297   -10.0271    -3.7050 Cl    219 CCL4  -0.0812 
1253 CL      -7.2500    -7.4166    -2.9733 Cl    219 CCL4  -0.0812 
1254 CL      -8.6003    -9.9644    -2.6188 Cl    219 CCL4  -0.0812 
1255 CL       0.0528    -3.8195    -7.2581 Cl    220 CCL4  -0.0812 
1256 C        1.6867    -3.4292    -6.6742 C.3   220 CCL4   0.3246 
1257 CL       1.8030    -1.6571    -6.3668 Cl    220 CCL4  -0.0812 
1258 CL       2.9093    -3.9403    -7.8910 Cl    220 CCL4  -0.0812 
1259 CL       1.9745    -4.1596    -5.0902 Cl    220 CCL4  -0.0812 
1260 CL     -17.5717    -6.8417    -4.1806 Cl    221 CCL4  -0.0812 
1261 C      -17.6626    -5.9790    -5.7379 C.3   221 CCL4   0.3246 
1262 CL     -16.8343    -4.3381    -5.7418 Cl    221 CCL4  -0.0812 
1263 CL     -19.3897    -5.4639    -5.9122 Cl    221 CCL4  -0.0812 
1264 CL     -17.0652    -6.9449    -7.1385 Cl    221 CCL4  -0.0812 
1265 CL     -16.5309   -10.3231    -5.4107 Cl    222 CCL4  -0.0812 
1266 C      -15.4471   -10.9212    -6.6798 C.3   222 CCL4   0.3246 
1267 CL     -16.3934   -12.2528    -7.3839 Cl    222 CCL4  -0.0812 
1268 CL     -14.1150   -11.7732    -5.8664 Cl    222 CCL4  -0.0812 
1269 CL     -14.9393    -9.6699    -7.8475 Cl    222 CCL4  -0.0812 
1270 CL      -3.2088    -6.8440    -1.2811 Cl    223 CCL4  -0.0812 
1271 C       -3.0976    -7.0269     0.4575 C.3   223 CCL4   0.3246 
1272 CL      -1.4165    -6.3467     0.8904 Cl    223 CCL4  -0.0812 
1273 CL      -3.2052    -8.7828     0.8496 Cl    223 CCL4  -0.0812 
1274 CL      -4.2916    -6.0913     1.3372 Cl    223 CCL4  -0.0812 
1275 CL      -0.9356    -8.7292   -15.8512 Cl    224 CCL4  -0.0812 
1276 C       -0.4046    -7.3818   -14.8709 C.3   224 CCL4   0.3246 
1277 CL      -0.6516    -5.8148   -15.7688 Cl    224 CCL4  -0.0812 
1278 CL       1.3476    -7.6126   -14.6125 Cl    224 CCL4  -0.0812 
1279 CL      -1.3389    -7.3298   -13.2977 Cl    224 CCL4  -0.0812 
1280 CL      -2.7695   -14.5359   -12.9568 Cl    225 CCL4  -0.0812 
1281 C       -3.3196   -15.9078   -11.9991 C.3   225 CCL4   0.3246 
1282 CL      -4.3061   -15.3560   -10.6338 Cl    225 CCL4  -0.0812 
1283 CL      -1.8898   -16.7076   -11.3975 Cl    225 CCL4  -0.0812 
1284 CL      -4.3564   -16.9766   -13.0664 Cl    225 CCL4  -0.0812 
1285 CL       2.3233   -13.4685     2.3643 Cl    226 CCL4  -0.0812 
1286 C        3.1214   -14.7679     3.2803 C.3   226 CCL4   0.3246 
1287 CL       1.7457   -15.6038     4.0035 Cl    226 CCL4  -0.0812 
1288 CL       4.1409   -13.9862     4.4292 Cl    226 CCL4  -0.0812 
1289 CL       3.9468   -15.8330     2.2332 Cl    226 CCL4  -0.0812 
1290 CL       2.0717   -12.4459    23.2408 Cl    227 CCL4  -0.0812 
1291 C        3.5435   -11.4879    23.1365 C.3   227 CCL4   0.3246 
1292 CL       5.0240   -12.5037    23.2711 Cl    227 CCL4  -0.0812 
1293 CL       3.6294   -10.2013    24.3203 Cl    227 CCL4  -0.0812 
1294 CL       3.6641   -10.6576    21.5362 Cl    227 CCL4  -0.0812 
1295 CL       1.0709   -17.7631   -13.0046 Cl    228 CCL4  -0.0812 
1296 C        1.7941   -16.1804   -12.9668 C.3   228 CCL4   0.3246 
1297 CL       2.1265   -15.8139   -11.1792 Cl    228 CCL4  -0.0812 
1298 CL       0.6565   -14.9152   -13.4915 Cl    228 CCL4  -0.0812 
1299 CL       3.2783   -15.9857   -13.8960 Cl    228 CCL4  -0.0812 
1300 CL       2.6971    -8.9796   -11.6928 Cl    229 CCL4  -0.0812 
1301 C        2.1589   -10.7405   -11.7776 C.3   229 CCL4   0.3246 
1302 CL       0.7061   -10.7388   -12.8464 Cl    229 CCL4  -0.0812 
1303 CL       1.8548   -11.3364   -10.1540 Cl    229 CCL4  -0.0812 
1304 CL       3.5180   -11.7291   -12.3807 Cl    229 CCL4  -0.0812 
1305 CL      -1.9702   -15.0962   -16.7827 Cl    230 CCL4  -0.0812 
1306 C       -1.1026   -16.5808   -16.7277 C.3   230 CCL4   0.3246 
1307 CL      -1.6216   -17.8189   -17.9402 Cl    230 CCL4  -0.0812 
1308 CL      -1.4576   -17.3866   -15.0435 Cl    230 CCL4  -0.0812 
1309 CL       0.6928   -16.4244   -16.7705 Cl    230 CCL4  -0.0812 
1310 CL      -3.4541    23.7836   -14.7543 Cl    231 CCL4  -0.0812 
1311 C       -3.0799    22.9653   -13.2394 C.3   231 CCL4   0.3246 
1312 CL      -1.7838    23.7824   -12.3875 Cl    231 CCL4  -0.0812 
1313 CL      -2.5401    21.2743   -13.5348 Cl    231 CCL4  -0.0812 
1314 CL      -4.5643    22.7607   -12.1571 Cl    231 CCL4  -0.0812 
1315 CL      -1.5899    -2.5306   -11.1104 Cl    232 CCL4  -0.0812 
1316 C        0.0498    -2.0894   -11.6099 C.3   232 CCL4   0.3246 
1317 CL       0.9860    -1.7263   -10.2347 Cl    232 CCL4  -0.0812 
1318 CL      -0.0266    -0.5647   -12.5037 Cl    232 CCL4  -0.0812 
1319 CL       0.6582    -3.4284   -12.5685 Cl    232 CCL4  -0.0812 
1320 CL      -4.2013    -2.5615   -17.1010 Cl    233 CCL4  -0.0812 
1321 C       -2.5169    -2.3098   -16.6320 C.3   233 CCL4   0.3246 
1322 CL      -2.2173    -2.9303   -15.0142 Cl    233 CCL4  -0.0812 
1323 CL      -2.3877    -0.4858   -16.6238 Cl    233 CCL4  -0.0812 
1324 CL      -1.5197    -3.1219   -17.9594 Cl    233 CCL4  -0.0812 
1325 CL       0.7721    20.6304   -16.4828 Cl    234 CCL4  -0.0812 
1326 C        0.8560    22.1193   -15.5449 C.3   234 CCL4   0.3246 
1327 CL       0.8582    21.9198   -13.8439 Cl    234 CCL4  -0.0812 
1328 CL      -0.4291    23.2321   -16.0179 Cl    234 CCL4  -0.0812 
1329 CL       2.2757    23.1825   -16.0613 Cl    234 CCL4  -0.0812 
1330 CL       0.4621   -15.0013    -7.5585 Cl    235 CCL4  -0.0812 
1331 C       -0.7963   -13.9106    -8.2052 C.3   235 CCL4   0.3246 
1332 CL      -2.5025   -14.6145    -7.6771 Cl    235 CCL4  -0.0812 
1333 CL      -0.7758   -13.8387    -9.9767 Cl    235 CCL4  -0.0812 
1334 CL      -0.8675   -12.3050    -7.4209 Cl    235 CCL4  -0.0812 
1335 CL      -3.5240   -10.7878    -9.1407 Cl    236 CCL4  -0.0812 
1336 C       -4.2018   -10.4383   -10.7040 C.3   236 CCL4   0.3246 
1337 CL      -5.0203   -11.9356   -11.1354 Cl    236 CCL4  -0.0812 
1338 CL      -3.0675   -10.0268   -12.0371 Cl    236 CCL4  -0.0812 
1339 CL      -5.4420    -9.1551   -10.6762 Cl    236 CCL4  -0.0812 
1340 CL      -1.1725   -17.9585    -6.6662 Cl    237 CCL4  -0.0812 
1341 C        0.3064   -18.6421    -7.3557 C.3   237 CCL4   0.3246 
1342 CL       0.5210   -17.8794    -8.9946 Cl    237 CCL4  -0.0812 
1343 CL       0.2019   -20.3937    -7.4668 Cl    237 CCL4  -0.0812 
1344 CL       1.7182   -18.2544    -6.3707 Cl    237 CCL4  -0.0812 
1345 CL     -16.1924   -16.4034    -2.4902 Cl    238 CCL4  -0.0812 
1346 C      -16.6205   -15.4019    -1.1162 C.3   238 CCL4   0.3246 
1347 CL     -16.9924   -13.7240    -1.5482 Cl    238 CCL4  -0.0812 
1348 CL     -18.1860   -15.9724    -0.4115 Cl    238 CCL4  -0.0812 
1349 CL     -15.3777   -15.5138     0.1626 Cl    238 CCL4  -0.0812 
1350 CL       0.3171    -9.0850     2.1605 Cl    239 CCL4  -0.0812 
1351 C        1.9146    -9.4536     1.4821 C.3   239 CCL4   0.3246 
1352 CL       2.5625    -7.9558     0.6270 Cl    239 CCL4  -0.0812 
1353 CL       1.7269   -10.7741     0.3512 Cl    239 CCL4  -0.0812 
1354 CL       3.0671    -9.9456     2.8315 Cl    239 CCL4  -0.0812 
1355 CL      -2.9539     2.2831    -7.8592 Cl    240 CCL4  -0.0812 
1356 C       -1.6836     1.0378    -8.0098 C.3   240 CCL4   0.3246 
1357 CL      -0.7018     1.0327    -6.5118 Cl    240 CCL4  -0.0812 
1358 CL      -0.8293     1.4233    -9.5872 Cl    240 CCL4  -0.0812 
1359 CL      -2.4000    -0.5980    -8.1004 Cl    240 CCL4  -0.0812 
1360 CL       0.6573   -16.1190     0.5682 Cl    241 CCL4  -0.0812 
1361 C       -0.3727   -15.3436    -0.6868 C.3   241 CCL4   0.3246 
1362 CL      -1.4229   -16.5743    -1.3866 Cl    241 CCL4  -0.0812 
1363 CL       0.5819   -14.5409    -1.9356 Cl    241 CCL4  -0.0812 
1364 CL      -1.4034   -14.1469     0.2670 Cl    241 CCL4  -0.0812 
1365 CL      -3.9435    24.0200    -2.6961 Cl    242 CCL4  -0.0812 
1366 C       -2.8291    23.3864    -3.9984 C.3   242 CCL4   0.3246 
1367 CL      -2.6225    21.6539    -3.7945 Cl    242 CCL4  -0.0812 
1368 CL      -1.3838    24.2891    -3.6360 Cl    242 CCL4  -0.0812 
1369 CL      -3.4851    23.8861    -5.5611 Cl    242 CCL4  -0.0812 
1370 CL       3.3542   -16.6049    -1.3310 Cl    243 CCL4  -0.0812 
1371 C        3.3487   -18.2519    -1.7541 C.3   243 CCL4   0.3246 
1372 CL       3.8128   -19.1742    -0.2556 Cl    243 CCL4  -0.0812 
1373 CL       4.5027   -18.6251    -2.9621 Cl    243 CCL4  -0.0812 
1374 CL       1.7483   -18.7466    -2.1673 Cl    243 CCL4  -0.0812 
1375 CL      -1.3874    24.1056     0.7287 Cl    244 CCL4  -0.0812 
1376 C       -0.7188    22.4480     0.4734 C.3   244 CCL4   0.3246 
1377 CL       0.8537    22.5387    -0.2744 Cl    244 CCL4  -0.0812 
1378 CL      -1.7769    21.4986    -0.5979 Cl    244 CCL4  -0.0812 
1379 CL      -0.4507    21.7526     2.1319 Cl    244 CCL4  -0.0812 
1380 CL       2.1997    -7.3768    -3.9793 Cl    245 CCL4  -0.0812 
1381 C        0.8527    -7.0346    -2.9476 C.3   245 CCL4   0.3246 
1382 CL      -0.4779    -6.3233    -3.8741 Cl    245 CCL4  -0.0812 
1383 CL       1.3583    -5.5994    -2.0130 Cl    245 CCL4  -0.0812 
1384 CL       0.1629    -8.3746    -1.9149 Cl    245 CCL4  -0.0812 
1385 CL      -4.5455    -9.1016    22.4075 Cl    246 CCL4  -0.0812 
1386 C       -4.9707    -7.3038    22.0362 C.3   246 CCL4   0.3246 
1387 CL      -4.0610    -6.1871    23.0471 Cl    246 CCL4  -0.0812 
1388 CL      -6.7052    -7.0830    22.4548 Cl    246 CCL4  -0.0812 
1389 CL      -4.5745    -6.9488    20.3711 Cl    246 CCL4  -0.0812 
1390 CL       0.0765    -6.2929    -9.6444 Cl    247 CCL4  -0.0812 
1391 C       -0.9412    -7.5550    -8.8528 C.3   247 CCL4   0.3246 
1392 CL      -0.5913    -7.6498    -7.0950 Cl    247 CCL4  -0.0812 
1393 CL      -0.6256    -9.1553    -9.5363 Cl    247 CCL4  -0.0812 
1394 CL      -2.7051    -7.2527    -9.1897 Cl    247 CCL4  -0.0812 
1395 CL      -5.6536    -4.3444   -14.2622 Cl    248 CCL4  -0.0812 
1396 C       -5.2213    -5.6101   -13.1195 C.3   248 CCL4   0.3246 
1397 CL      -6.5231    -5.5820   -11.9772 Cl    248 CCL4  -0.0812 
1398 CL      -3.6498    -5.2476   -12.2230 Cl    248 CCL4  -0.0812 
1399 CL      -4.9621    -7.1270   -13.8945 Cl    248 CCL4  -0.0812 
1400 CL      -5.3523    -0.9238   -13.0730 Cl    249 CCL4  -0.0812 
1401 C       -5.7271    -0.7169   -11.3907 C.3   249 CCL4   0.3246 
1402 CL      -4.7836     0.7071   -10.8766 Cl    249 CCL4  -0.0812 
1403 CL      -5.2200    -2.1511   -10.5152 Cl    249 CCL4  -0.0812 
1404 CL      -7.4074    -0.4129   -11.0130 Cl    249 CCL4  -0.0812 
1405 CL     -17.7668   -10.0394    10.9494 Cl    250 CCL4  -0.0812 
1406 C      -18.0011    -8.3980    11.6135 C.3   250 CCL4   0.3246 
1407 CL     -19.4959    -7.7710    10.9053 Cl    250 CCL4  -0.0812 
1408 CL     -16.5781    -7.3414    11.3911 Cl    250 CCL4  -0.0812 
1409 CL     -18.2128    -8.6087    13.3769 Cl    250 CCL4  -0.0812 
1410 CL      -6.1099   -11.9936     7.8085 Cl    251 CCL4  -0.0812 
1411 C       -5.6086   -11.9938     9.4290 C.3   251 CCL4   0.3246 
1412 CL      -5.9451   -13.4894    10.2138 Cl    251 CCL4  -0.0812 
1413 CL      -6.1668   -10.6384    10.3151 Cl    251 CCL4  -0.0812 
1414 CL      -3.8165   -11.8673     9.4067 Cl    251 CCL4  -0.0812 
1415 CL      -8.2252   -21.1632    13.5962 Cl    252 CCL4  -0.0812 
1416 C       -8.8230   -20.1453    12.2010 C.3   252 CCL4   0.3246 
1417 CL     -10.0615   -20.9241    11.1185 Cl    252 CCL4  -0.0812 
1418 CL      -7.4454   -19.5845    11.2020 Cl    252 CCL4  -0.0812 
1419 CL      -9.5539   -18.6066    12.9415 Cl    252 CCL4  -0.0812 
1420 CL     -13.9568    -9.6871    12.8431 Cl    253 CCL4  -0.0812 
1421 C      -13.6706   -11.4421    12.9702 C.3   253 CCL4   0.3246 
1422 CL     -13.9154   -11.9572    14.6610 Cl    253 CCL4  -0.0812 
1423 CL     -12.1315   -12.0415    12.4068 Cl    253 CCL4  -0.0812 
1424 CL     -14.9246   -12.2553    12.0024 Cl    253 CCL4  -0.0812 
1425 CL      -8.5111   -12.6048    12.6758 Cl    254 CCL4  -0.0812 
1426 C       -9.0196   -14.3321    12.8919 C.3   254 CCL4   0.3246 
1427 CL      -7.5925   -15.2755    13.3561 Cl    254 CCL4  -0.0812 
1428 CL      -9.6807   -15.0148    11.4395 Cl    254 CCL4  -0.0812 
1429 CL     -10.1152   -14.4474    14.3429 Cl    254 CCL4  -0.0812 
1430 CL     -13.6167    23.4837     8.7792 Cl    255 CCL4  -0.0812 
1431 C      -15.3981    22.9578     8.9285 C.3   255 CCL4   0.3246 
1432 CL     -15.4135    21.2647     9.1348 Cl    255 CCL4  -0.0812 
1433 CL     -16.3674    23.3895     7.4407 Cl    255 CCL4  -0.0812 
1434 CL     -16.0595    23.8876    10.3513 Cl    255 CCL4  -0.0812 
1435 CL      -9.4274    23.3947    16.6830 Cl    256 CCL4  -0.0812 
1436 C       -9.9283    21.7589    17.0384 C.3   256 CCL4   0.3246 
1437 CL      -8.6958    20.6284    16.4952 Cl    256 CCL4  -0.0812 
1438 CL     -11.3657    21.3497    16.0842 Cl    256 CCL4  -0.0812 
1439 CL     -10.2578    21.5960    18.7248 Cl    256 CCL4  -0.0812 
1440 CL     -13.1045   -19.8480    12.6211 Cl    257 CCL4  -0.0812 
1441 C      -13.8485   -19.3574    14.1724 C.3   257 CCL4   0.3246 
1442 CL     -12.6245   -18.8687    15.2451 Cl    257 CCL4  -0.0812 
1443 CL     -14.7254   -20.7710    14.7883 Cl    257 CCL4  -0.0812 
1444 CL     -15.0390   -18.0147    13.8675 Cl    257 CCL4  -0.0812 
1445 CL       3.0393    -4.1858    10.1349 Cl    258 CCL4  -0.0812 
1446 C        2.9939    -2.5657     9.4525 C.3   258 CCL4   0.3246 
1447 CL       3.2390    -1.2913    10.8097 Cl    258 CCL4  -0.0812 
1448 CL       1.3785    -2.1699     8.7974 Cl    258 CCL4  -0.0812 
1449 CL       4.1603    -2.1400     8.1967 Cl    258 CCL4  -0.0812 
1450 CL      -4.0542   -14.4068     3.1348 Cl    259 CCL4  -0.0812 
1451 C       -3.0534   -15.7329     3.8885 C.3   259 CCL4   0.3246 
1452 CL      -2.6363   -16.8115     2.5448 Cl    259 CCL4  -0.0812 
1453 CL      -3.9897   -16.5296     5.1261 Cl    259 CCL4  -0.0812 
1454 CL      -1.6258   -15.0038     4.6319 Cl    259 CCL4  -0.0812 
1455 CL      -6.8801   -15.1316     6.8904 Cl    260 CCL4  -0.0812 
1456 C       -7.1276   -16.7024     7.6561 C.3   260 CCL4   0.3246 
1457 CL      -8.5064   -16.6662     8.7396 Cl    260 CCL4  -0.0812 
1458 CL      -5.6705   -17.1884     8.6013 Cl    260 CCL4  -0.0812 
1459 CL      -7.3503   -17.9825     6.3771 Cl    260 CCL4  -0.0812 
1460 CL     -13.6814   -16.9064     3.7092 Cl    261 CCL4  -0.0812 
1461 C      -13.2098   -17.4997     5.3197 C.3   261 CCL4   0.3246 
1462 CL     -14.3899   -16.9172     6.4788 Cl    261 CCL4  -0.0812 
1463 CL     -11.6727   -16.7564     5.7720 Cl    261 CCL4  -0.0812 
1464 CL     -13.0048   -19.2519     5.2452 Cl    261 CCL4  -0.0812 
1465 CL     -10.0828   -10.5171     6.9424 Cl    262 CCL4  -0.0812 
1466 C      -10.4689   -11.9723     7.9904 C.3   262 CCL4   0.3246 
1467 CL     -12.1725   -11.9470     8.6010 Cl    262 CCL4  -0.0812 
1468 CL      -9.3425   -12.1168     9.3890 Cl    262 CCL4  -0.0812 
1469 CL     -10.0856   -13.3757     6.9615 Cl    262 CCL4  -0.0812 
1470 CL     -17.2520   -13.9918     6.1293 Cl    263 CCL4  -0.0812 
1471 C      -16.0067   -13.0581     6.9653 C.3   263 CCL4   0.3246 
1472 CL     -16.1968   -13.5133     8.7626 Cl    263 CCL4  -0.0812 
1473 CL     -16.3807   -11.2636     7.0694 Cl    263 CCL4  -0.0812 
1474 CL     -14.4956   -13.5643     6.3754 Cl    263 CCL4  -0.0812 
1475 CL     -12.2317   -17.5863     9.8589 Cl    264 CCL4  -0.0812 
1476 C      -13.2458   -16.3469    10.5828 C.3   264 CCL4   0.3246 
1477 CL     -12.9165   -14.8219     9.7392 Cl    264 CCL4  -0.0812 
1478 CL     -12.6249   -16.1030    12.3009 Cl    264 CCL4  -0.0812 
1479 CL     -14.9213   -16.8734    10.5555 Cl    264 CCL4  -0.0812 
1480 CL       6.9961   -12.1582    13.7727 Cl    265 CCL4  -0.0812 
1481 C        6.6668   -13.7857    13.1160 C.3   265 CCL4   0.3246 
1482 CL       5.4159   -14.6246    14.0024 Cl    265 CCL4  -0.0812 
1483 CL       8.0591   -14.7886    13.3497 Cl    265 CCL4  -0.0812 
1484 CL       6.2539   -13.5370    11.3653 Cl    265 CCL4  -0.0812 
1485 CL       7.2810   -20.1785    13.5714 Cl    266 CCL4  -0.0812 
1486 C        5.8155   -19.3026    13.0467 C.3   266 CCL4   0.3246 
1487 CL       6.3805   -18.0589    11.8939 Cl    266 CCL4  -0.0812 
1488 CL       4.9232   -18.5538    14.3455 Cl    266 CCL4  -0.0812 
1489 CL       4.7140   -20.3889    12.0615 Cl    266 CCL4  -0.0812 
1490 CL     -16.1193     1.5193    12.2277 Cl    267 CCL4  -0.0812 
1491 C      -17.4762     0.7565    13.1171 C.3   267 CCL4   0.3246 
1492 CL     -18.9951     1.3391    12.3548 Cl    267 CCL4  -0.0812 
1493 CL     -17.4672     1.3478    14.7676 Cl    267 CCL4  -0.0812 
1494 CL     -17.2079    -0.9809    13.0219 Cl    267 CCL4  -0.0812 
1495 CL       4.8082   -18.5333     8.4615 Cl    268 CCL4  -0.0812 
1496 C        5.3523   -17.0242     7.7336 C.3   268 CCL4   0.3246 
1497 CL       6.6232   -16.2435     8.7771 Cl    268 CCL4  -0.0812 
1498 CL       4.0402   -15.7816     7.6385 Cl    268 CCL4  -0.0812 
1499 CL       6.0204   -17.1351     6.1661 Cl    268 CCL4  -0.0812 
1500 CL     -13.6195   -18.1147    21.2432 Cl    269 CCL4  -0.0812 
1501 C      -13.1473   -19.5807    20.2534 C.3   269 CCL4   0.3246 
1502 CL     -14.6913   -20.0974    19.5006 Cl    269 CCL4  -0.0812 
1503 CL     -12.3697   -20.9009    21.2324 Cl    269 CCL4  -0.0812 
1504 CL     -12.0679   -18.9957    18.9962 Cl    269 CCL4  -0.0812 
1505 CL       7.5216   -18.6642    19.5775 Cl    270 CCL4  -0.0812 
1506 C        6.5590   -20.0428    18.8574 C.3   270 CCL4   0.3246 
1507 CL       7.4020   -20.6865    17.4035 Cl    270 CCL4  -0.0812 
1508 CL       4.9910   -19.4112    18.3786 Cl    270 CCL4  -0.0812 
1509 CL       6.2377   -21.4261    20.0191 Cl    270 CCL4  -0.0812 
1510 CL      -7.8602   -14.5530    17.4028 Cl    271 CCL4  -0.0812 
1511 C       -6.9593   -13.4803    18.4765 C.3   271 CCL4   0.3246 
1512 CL      -5.7994   -12.3929    17.6680 Cl    271 CCL4  -0.0812 
1513 CL      -5.9873   -14.5649    19.7245 Cl    271 CCL4  -0.0812 
1514 CL      -8.0653   -12.5148    19.4562 Cl    271 CCL4  -0.0812 
1515 CL      -8.9375   -11.2334    16.2211 Cl    272 CCL4  -0.0812 
1516 C      -10.5115   -10.9557    17.0907 C.3   272 CCL4   0.3246 
1517 CL     -10.2383   -10.0077    18.5230 Cl    272 CCL4  -0.0812 
1518 CL     -11.2128   -12.5730    17.5362 Cl    272 CCL4  -0.0812 
1519 CL     -11.5414   -10.0737    16.0389 Cl    272 CCL4  -0.0812 
1520 CL      -3.9289   -19.0794    15.7842 Cl    273 CCL4  -0.0812 
1521 C       -5.4672   -18.6550    16.3727 C.3   273 CCL4   0.3246 
1522 CL      -6.5491   -18.3361    14.9302 Cl    273 CCL4  -0.0812 
1523 CL      -5.3775   -17.2051    17.3103 Cl    273 CCL4  -0.0812 
1524 CL      -6.2020   -19.9379    17.3000 Cl    273 CCL4  -0.0812 
1525 CL     -14.5421   -15.0850    16.2428 Cl    274 CCL4  -0.0812 
1526 C      -15.6372   -16.0473    17.1778 C.3   274 CCL4   0.3246 
1527 CL     -17.3237   -15.7547    16.7123 Cl    274 CCL4  -0.0812 
1528 CL     -15.5606   -15.4864    18.8126 Cl    274 CCL4  -0.0812 
1529 CL     -15.2196   -17.7601    17.0675 Cl    274 CCL4  -0.0812 
1530 CL       6.0418    -1.8358    19.3307 Cl    275 CCL4  -0.0812 
1531 C        6.4877    -0.9891    17.8404 C.3   275 CCL4   0.3246 
1532 CL       7.1643     0.6042    18.3332 Cl    275 CCL4  -0.0812 
1533 CL       4.8925    -0.7323    17.0907 Cl    275 CCL4  -0.0812 
1534 CL       7.5593    -1.8335    16.6813 Cl    275 CCL4  -0.0812 
1535 CL      -8.8948    -6.8711    10.6550 Cl    276 CCL4  -0.0812 
1536 C       -9.5851    -8.0012    11.8514 C.3   276 CCL4   0.3246 
1537 CL     -10.7212    -9.0966    10.8525 Cl    276 CCL4  -0.0812 
1538 CL     -10.5379    -6.9524    13.0023 Cl    276 CCL4  -0.0812 
1539 CL      -8.4163    -9.0703    12.6157 Cl    276 CCL4  -0.0812 
1540 CL      -9.5911    -2.8688    18.0365 Cl    277 CCL4  -0.0812 
1541 C       -9.9792    -3.1843    16.2796 C.3   277 CCL4   0.3246 
1542 CL     -11.1782    -4.6057    16.2629 Cl    277 CCL4  -0.0812 
1543 CL      -8.4360    -3.7715    15.5167 Cl    277 CCL4  -0.0812 
1544 CL     -10.6232    -1.8030    15.5299 Cl    277 CCL4  -0.0812 
1545 CL     -13.5048    -4.1256    13.4524 Cl    278 CCL4  -0.0812 
1546 C      -14.6295    -4.9166    14.5488 C.3   278 CCL4   0.3246 
1547 CL     -14.2304    -6.5979    14.8050 Cl    278 CCL4  -0.0812 
1548 CL     -16.2737    -4.7942    13.8023 Cl    278 CCL4  -0.0812 
1549 CL     -14.6384    -4.1568    16.1732 Cl    278 CCL4  -0.0812 
1550 CL       1.1540    -7.5888     6.6231 Cl    279 CCL4  -0.0812 
1551 C        1.0908    -6.1676     5.5494 C.3   279 CCL4   0.3246 
1552 CL       2.0837    -6.3421     4.1084 Cl    279 CCL4  -0.0812 
1553 CL       1.7790    -4.8324     6.6154 Cl    279 CCL4  -0.0812 
1554 CL      -0.5276    -5.8314     5.1000 Cl    279 CCL4  -0.0812 
1555 CL      -8.7774    -3.8934     9.0898 Cl    280 CCL4  -0.0812 
1556 C       -9.7689    -3.0632    10.3687 C.3   280 CCL4   0.3246 
1557 CL      -9.6911    -3.7412    11.9663 Cl    280 CCL4  -0.0812 
1558 CL     -11.4947    -2.9678     9.9859 Cl    280 CCL4  -0.0812 
1559 CL      -9.1588    -1.3676    10.4033 Cl    280 CCL4  -0.0812 
1560 CL     -13.6099   -10.6380     4.9609 Cl    281 CCL4  -0.0812 
1561 C      -13.0977    -9.1862     4.1991 C.3   281 CCL4   0.3246 
1562 CL     -13.2980    -7.8427     5.2807 Cl    281 CCL4  -0.0812 
1563 CL     -13.9431    -8.7762     2.7249 Cl    281 CCL4  -0.0812 
1564 CL     -11.3112    -9.2211     3.8836 Cl    281 CCL4  -0.0812 
1565 CL     -17.6743    -7.9484     7.6360 Cl    282 CCL4  -0.0812 
1566 C      -18.0056    -7.1799     6.0628 C.3   282 CCL4   0.3246 
1567 CL     -19.6447    -7.3806     5.5307 Cl    282 CCL4  -0.0812 
1568 CL     -17.0044    -7.8440     4.8097 Cl    282 CCL4  -0.0812 
1569 CL     -17.7805    -5.4526     6.2147 Cl    282 CCL4  -0.0812 
1570 CL       4.7760   -10.3803    16.4835 Cl    283 CCL4  -0.0812 
1571 C        3.8138    -9.5893    17.7450 C.3   283 CCL4   0.3246 
1572 CL       4.8453    -8.9739    19.0473 Cl    283 CCL4  -0.0812 
1573 CL       2.5984   -10.5711    18.4826 Cl    283 CCL4  -0.0812 
1574 CL       3.1041    -7.9886    16.9879 Cl    283 CCL4  -0.0812 
1575 CL       5.5460    -4.8594    15.1635 Cl    284 CCL4  -0.0812 
1576 C        4.7325    -4.2353    13.8076 C.3   284 CCL4   0.3246 
1577 CL       3.1521    -5.0550    13.7015 Cl    284 CCL4  -0.0812 
1578 CL       5.4610    -4.5530    12.3067 Cl    284 CCL4  -0.0812 
1579 CL       4.5136    -2.5359    14.1043 Cl    284 CCL4  -0.0812 
1580 CL      -5.1004   -10.7105     4.2687 Cl    285 CCL4  -0.0812 
1581 C       -6.8020   -10.6524     3.9832 C.3   285 CCL4   0.3246 
1582 CL      -7.5079   -12.1157     4.4421 Cl    285 CCL4  -0.0812 
1583 CL      -7.1377   -10.2019     2.2434 Cl    285 CCL4  -0.0812 
1584 CL      -7.4567    -9.2841     5.0001 Cl    285 CCL4  -0.0812 
1585 CL      -8.0064    -6.0317    18.5163 Cl    286 CCL4  -0.0812 
1586 C       -7.3488    -7.2449    17.3913 C.3   286 CCL4   0.3246 
1587 CL      -8.4912    -7.6570    16.1418 Cl    286 CCL4  -0.0812 
1588 CL      -6.8544    -8.6600    18.2247 Cl    286 CCL4  -0.0812 
1589 CL      -6.0091    -6.5345    16.5119 Cl    286 CCL4  -0.0812 
1590 CL      -6.2685     1.7471    19.5671 Cl    287 CCL4  -0.0812 
1591 C       -6.1510    -0.0135    19.4177 C.3   287 CCL4   0.3246 
1592 CL      -4.5417    -0.5274    19.8390 Cl    287 CCL4  -0.0812 
1593 CL      -6.2316    -0.4662    17.6855 Cl    287 CCL4  -0.0812 
1594 CL      -7.3103    -0.7912    20.4659 Cl    287 CCL4  -0.0812 
1595 CL       0.0528    -3.8195    17.7419 Cl    288 CCL4  -0.0812 
1596 C        1.6867    -3.4292    18.3258 C.3   288 CCL4   0.3246 
1597 CL       1.8030    -1.6571    18.6332 Cl    288 CCL4  -0.0812 
1598 CL       2.9093    -3.9403    17.1090 Cl    288 CCL4  -0.0812 
1599 CL       1.9745    -4.1596    19.9098 Cl    288 CCL4  -0.0812 
1600 CL     -17.5717    -6.8417    20.8194 Cl    289 CCL4  -0.0812 
1601 C      -17.6626    -5.9790    19.2621 C.3   289 CCL4   0.3246 
1602 CL     -16.8343    -4.3381    19.2582 Cl    289 CCL4  -0.0812 
1603 CL     -19.3897    -5.4639    19.0878 Cl    289 CCL4  -0.0812 
1604 CL     -17.0652    -6.9449    17.8615 Cl    289 CCL4  -0.0812 
1605 CL     -16.5309   -10.3231    19.5893 Cl    290 CCL4  -0.0812 
1606 C      -15.4471   -10.9212    18.3202 C.3   290 CCL4   0.3246 
1607 CL     -16.3934   -12.2528    17.6161 Cl    290 CCL4  -0.0812 
1608 CL     -14.1150   -11.7732    19.1336 Cl    290 CCL4  -0.0812 
1609 CL     -14.9393    -9.6699    17.1525 Cl    290 CCL4  -0.0812 
1610 CL      -0.9356    -8.7292     9.1488 Cl    291 CCL4  -0.0812 
1611 C       -0.4046    -7.3818    10.1291 C.3   291 CCL4   0.3246 
1612 CL      -0.6516    -5.8148     9.2312 Cl    291 CCL4  -0.0812 
1613 CL       1.3476    -7.6126    10.3875 Cl    291 CCL4  -0.0812 
1614 CL      -1.3389    -7.3298    11.7023 Cl    291 CCL4  -0.0812 
1615 CL      -2.7695   -14.5359    12.0432 Cl    292 CCL4  -0.0812 
1616 C       -3.3196   -15.9078    13.0009 C.3   292 CCL4   0.3246 
1617 CL      -4.3061   -15.3560    14.3662 Cl    292 CCL4  -0.0812 
1618 CL      -1.8898   -16.7076    13.6025 Cl    292 CCL4  -0.0812 
1619 CL      -4.3564   -16.9766    11.9336 Cl    292 CCL4  -0.0812 
1620 CL       2.0717   -12.4459     8.2408 Cl    293 CCL4  -0.0812 
1621 C        3.5435   -11.4879     8.1365 C.3   293 CCL4   0.3246 
1622 CL       5.0240   -12.5037     8.2711 Cl    293 CCL4  -0.0812 
1623 CL       3.6294   -10.2013     9.3203 Cl    293 CCL4  -0.0812 
1624 CL       3.6641   -10.6576     6.5362 Cl    293 CCL4  -0.0812 
1625 CL       1.0709   -17.7631    11.9954 Cl    294 CCL4  -0.0812 
1626 C        1.7941   -16.1804    12.0332 C.3   294 CCL4   0.3246 
1627 CL       2.1265   -15.8139    13.8208 Cl    294 CCL4  -0.0812 
1628 CL       0.6565   -14.9152    11.5085 Cl    294 CCL4  -0.0812 
1629 CL       3.2783   -15.9857    11.1040 Cl    294 CCL4  -0.0812 
1630 CL       2.6971    -8.9796    13.3072 Cl    295 CCL4  -0.0812 
1631 C        2.1589   -10.7405    13.2224 C.3   295 CCL4   0.3246 
1632 CL       0.7061   -10.7388    12.1536 Cl    295 CCL4  -0.0812 
1633 CL       1.8548   -11.3364    14.8460 Cl    295 CCL4  -0.0812 
1634 CL       3.5180   -11.7291    12.6193 Cl    295 CCL4  -0.0812 
1635 CL      -4.4569    21.1199     4.9353 Cl    296 CCL4  -0.0812 
1636 C       -3.5658    22.6608     5.2786 C.3   296 CCL4   0.3246 
1637 CL      -2.0489    22.2927     6.2452 Cl    296 CCL4  -0.0812 
1638 CL      -4.6525    23.7515     6.1882 Cl    296 CCL4  -0.0812 
1639 CL      -3.1275    23.4392     3.7410 Cl    296 CCL4  -0.0812 
1640 CL       2.7446   -18.6623     5.2252 Cl    297 CCL4  -0.0812 
1641 C        1.5334   -19.7346     4.3073 C.3   297 CCL4   0.3246 
1642 CL       1.2924   -21.2394     5.2449 Cl    297 CCL4  -0.0812 
1643 CL       2.2537   -20.1217     2.6938 Cl    297 CCL4  -0.0812 
1644 CL      -0.0227   -18.8901     4.2847 Cl    297 CCL4  -0.0812 
1645 CL      -1.9702   -15.0962     8.2173 Cl    298 CCL4  -0.0812 
1646 C       -1.1026   -16.5808     8.2723 C.3   298 CCL4   0.3246 
1647 CL      -1.6216   -17.8189     7.0598 Cl    298 CCL4  -0.0812 
1648 CL      -1.4576   -17.3866     9.9565 Cl    298 CCL4  -0.0812 
1649 CL       0.6928   -16.4244     8.2295 Cl    298 CCL4  -0.0812 
1650 CL      -3.4541    23.7836    10.2457 Cl    299 CCL4  -0.0812 
1651 C       -3.0799    22.9653    11.7606 C.3   299 CCL4   0.3246 
1652 CL      -1.7838    23.7824    12.6125 Cl    299 CCL4  -0.0812 
1653 CL      -2.5401    21.2743    11.4652 Cl    299 CCL4  -0.0812 
1654 CL      -4.5643    22.7607    12.8429 Cl    299 CCL4  -0.0812 
1655 CL      -1.5899    -2.5306    13.8896 Cl    300 CCL4  -0.0812 
1656 C        0.0498    -2.0894    13.3901 C.3   300 CCL4   0.3246 
1657 CL       0.9860    -1.7263    14.7653 Cl    300 CCL4  -0.0812 
1658 CL      -0.0266    -0.5647    12.4963 Cl    300 CCL4  -0.0812 
1659 CL       0.6582    -3.4284    12.4315 Cl    300 CCL4  -0.0812 
1660 CL       0.3680   -11.2749     5.2742 Cl    301 CCL4  -0.0812 
1661 C       -1.3169   -10.9683     4.8306 C.3   301 CCL4   0.3246 
1662 CL      -2.3449   -11.7822     6.0197 Cl    301 CCL4  -0.0812 
1663 CL      -1.7329   -11.5660     3.1881 Cl    301 CCL4  -0.0812 
1664 CL      -1.8497    -9.2757     4.9293 Cl    301 CCL4  -0.0812 
1665 CL      -4.2013    -2.5615     7.8990 Cl    302 CCL4  -0.0812 
1666 C       -2.5169    -2.3098     8.3680 C.3   302 CCL4   0.3246 
1667 CL      -2.2173    -2.9303     9.9858 Cl    302 CCL4  -0.0812 
1668 CL      -2.3877    -0.4858     8.3762 Cl    302 CCL4  -0.0812 
1669 CL      -1.5197    -3.1219     7.0406 Cl    302 CCL4  -0.0812 
1670 CL       0.7721    20.6304     8.5172 Cl    303 CCL4  -0.0812 
1671 C        0.8560    22.1193     9.4551 C.3   303 CCL4   0.3246 
1672 CL       0.8582    21.9198    11.1561 Cl    303 CCL4  -0.0812 
1673 CL      -0.4291    23.2321     8.9821 Cl    303 CCL4  -0.0812 
1674 CL       2.2757    23.1825     8.9387 Cl    303 CCL4  -0.0812 
1675 CL       0.4621   -15.0013    17.4415 Cl    304 CCL4  -0.0812 
1676 C       -0.7963   -13.9106    16.7948 C.3   304 CCL4   0.3246 
1677 CL      -2.5025   -14.6145    17.3229 Cl    304 CCL4  -0.0812 
1678 CL      -0.7758   -13.8387    15.0233 Cl    304 CCL4  -0.0812 
1679 CL      -0.8675   -12.3050    17.5791 Cl    304 CCL4  -0.0812 
1680 CL      -3.5240   -10.7878    15.8593 Cl    305 CCL4  -0.0812 
1681 C       -4.2018   -10.4383    14.2960 C.3   305 CCL4   0.3246 
1682 CL      -5.0203   -11.9356    13.8646 Cl    305 CCL4  -0.0812 
1683 CL      -3.0675   -10.0268    12.9629 Cl    305 CCL4  -0.0812 
1684 CL      -5.4420    -9.1551    14.3238 Cl    305 CCL4  -0.0812 
1685 CL      -1.1725   -17.9585    18.3338 Cl    306 CCL4  -0.0812 
1686 C        0.3064   -18.6421    17.6443 C.3   306 CCL4   0.3246 
1687 CL       0.5210   -17.8794    16.0054 Cl    306 CCL4  -0.0812 
1688 CL       0.2019   -20.3937    17.5332 Cl    306 CCL4  -0.0812 
1689 CL       1.7182   -18.2544    18.6293 Cl    306 CCL4  -0.0812 
1690 CL      -2.9539     2.2831    17.1408 Cl    307 CCL4  -0.0812 
1691 C       -1.6836     1.0378    16.9902 C.3   307 CCL4   0.3246 
1692 CL      -0.7018     1.0327    18.4882 Cl    307 CCL4  -0.0812 
1693 CL      -0.8293     1.4233    15.4128 Cl    307 CCL4  -0.0812 
1694 CL      -2.4000    -0.5980    16.8996 Cl    307 CCL4  -0.0812 
1695 CL      -4.5455    -9.1016     7.4075 Cl    308 CCL4  -0.0812 
1696 C       -4.9707    -7.3038     7.0362 C.3   308 CCL4   0.3246 
1697 CL      -4.0610    -6.1871     8.0471 Cl    308 CCL4  -0.0812 
1698 CL      -6.7052    -7.0830     7.4548 Cl    308 CCL4  -0.0812 
1699 CL      -4.5745    -6.9488     5.3711 Cl    308 CCL4  -0.0812 
1700 CL       0.0765    -6.2929    15.3556 Cl    309 CCL4  -0.0812 
1701 C       -0.9412    -7.5550    16.1472 C.3   309 CCL4   0.3246 
1702 CL      -0.5913    -7.6498    17.9050 Cl    309 CCL4  -0.0812 
1703 CL      -0.6256    -9.1553    15.4637 Cl    309 CCL4  -0.0812 
1704 CL      -2.7051    -7.2527    15.8103 Cl    309 CCL4  -0.0812 
1705 CL      -5.6536    -4.3444    10.7378 Cl    310 CCL4  -0.0812 
1706 C       -5.2213    -5.6101    11.8805 C.3   310 CCL4   0.3246 
1707 CL      -6.5231    -5.5820    13.0228 Cl    310 CCL4  -0.0812 
1708 CL      -3.6498    -5.2476    12.7770 Cl    310 CCL4  -0.0812 
1709 CL      -4.9621    -7.1270    11.1055 Cl    310 CCL4  -0.0812 
1710 CL      -5.3523    -0.9238    11.9270 Cl    311 CCL4  -0.0812 
1711 C       -5.7271    -0.7169    13.6093 C.3   311 CCL4   0.3246 
1712 CL      -4.7836     0.7071    14.1234 Cl    311 CCL4  -0.0812 
1713 CL      -5.2200    -2.1511    14.4848 Cl    311 CCL4  -0.0812 
1714 CL      -7.4074    -0.4129    13.9870 Cl    311 CCL4  -0.0812 
1715 CL     -17.7668    14.9606   -14.0506 Cl    312 CCL4  -0.0812 
1716 C      -18.0011    16.6020   -13.3865 C.3   312 CCL4   0.3246 
1717 CL     -19.4959    17.2290   -14.0947 Cl    312 CCL4  -0.0812 
1718 CL     -16.5781    17.6586   -13.6089 Cl    312 CCL4  -0.0812 
1719 CL     -18.2128    16.3913   -11.6231 Cl    312 CCL4  -0.0812 
1720 CL      -6.1099    13.0064   -17.1915 Cl    313 CCL4  -0.0812 
1721 C       -5.6086    13.0062   -15.5710 C.3   313 CCL4   0.3246 
1722 CL      -5.9451    11.5106   -14.7862 Cl    313 CCL4  -0.0812 
1723 CL      -6.1668    14.3616   -14.6849 Cl    313 CCL4  -0.0812 
1724 CL      -3.8165    13.1327   -15.5933 Cl    313 CCL4  -0.0812 
1725 CL      -8.2252     3.8368   -11.4038 Cl    314 CCL4  -0.0812 
1726 C       -8.8230     4.8547   -12.7990 C.3   314 CCL4   0.3246 
1727 CL     -10.0615     4.0759   -13.8815 Cl    314 CCL4  -0.0812 
1728 CL      -7.4454     5.4155   -13.7980 Cl    314 CCL4  -0.0812 
1729 CL      -9.5539     6.3934   -12.0585 Cl    314 CCL4  -0.0812 
1730 CL     -13.9568    15.3129   -12.1569 Cl    315 CCL4  -0.0812 
1731 C      -13.6706    13.5579   -12.0298 C.3   315 CCL4   0.3246 
1732 CL     -13.9154    13.0428   -10.3390 Cl    315 CCL4  -0.0812 
1733 CL     -12.1315    12.9585   -12.5932 Cl    315 CCL4  -0.0812 
1734 CL     -14.9246    12.7447   -12.9976 Cl    315 CCL4  -0.0812 
1735 CL      -6.8521     7.4650     2.8566 Cl    316 CCL4  -0.0812 
1736 C       -8.5239     8.0623     2.7297 C.3   316 CCL4   0.3246 
1737 CL      -8.8798     8.3143     0.9360 Cl    316 CCL4  -0.0812 
1738 CL      -8.8534     9.5858     3.5694 Cl    316 CCL4  -0.0812 
1739 CL      -9.7578     6.8393     3.1545 Cl    316 CCL4  -0.0812 
1740 CL      -8.5111    12.3952   -12.3242 Cl    317 CCL4  -0.0812 
1741 C       -9.0196    10.6679   -12.1081 C.3   317 CCL4   0.3246 
1742 CL      -7.5925     9.7245   -11.6439 Cl    317 CCL4  -0.0812 
1743 CL      -9.6807     9.9852   -13.5605 Cl    317 CCL4  -0.0812 
1744 CL     -10.1152    10.5526   -10.6571 Cl    317 CCL4  -0.0812 
1745 CL     -13.6167     4.5176   -16.2208 Cl    318 CCL4  -0.0812 
1746 C      -15.3981     3.9917   -16.0715 C.3   318 CCL4   0.3246 
1747 CL     -15.4135     2.2986   -15.8652 Cl    318 CCL4  -0.0812 
1748 CL     -16.3674     4.4234   -17.5593 Cl    318 CCL4  -0.0812 
1749 CL     -16.0595     4.9215   -14.6487 Cl    318 CCL4  -0.0812 
1750 CL      -9.4274     4.4286    -8.3170 Cl    319 CCL4  -0.0812 
1751 C       -9.9283     2.7928    -7.9616 C.3   319 CCL4   0.3246 
1752 CL      -8.6958     1.6623    -8.5048 Cl    319 CCL4  -0.0812 
1753 CL     -11.3657     2.3835    -8.9158 Cl    319 CCL4  -0.0812 
1754 CL     -10.2578     2.6299    -6.2752 Cl    319 CCL4  -0.0812 
1755 CL     -13.1045     5.1520   -12.3789 Cl    320 CCL4  -0.0812 
1756 C      -13.8485     5.6426   -10.8276 C.3   320 CCL4   0.3246 
1757 CL     -12.6245     6.1313    -9.7549 Cl    320 CCL4  -0.0812 
1758 CL     -14.7254     4.2290   -10.2117 Cl    320 CCL4  -0.0812 
1759 CL     -15.0390     6.9853   -11.1325 Cl    320 CCL4  -0.0812 
1760 CL       5.5083     3.0586    24.0094 Cl    321 CCL4  -0.0812 
1761 C        5.3397     2.3309    22.3953 C.3   321 CCL4   0.3246 
1762 CL       3.9769     1.1666    22.2990 Cl    321 CCL4  -0.0812 
1763 CL       6.9330     1.6985    21.9674 Cl    321 CCL4  -0.0812 
1764 CL       4.9944     3.7177    21.2904 Cl    321 CCL4  -0.0812 
1765 CL     -11.0567    12.5766     3.2574 Cl    322 CCL4  -0.0812 
1766 C      -11.3627    12.7268     1.5521 C.3   322 CCL4   0.3246 
1767 CL     -10.2924    13.8950     0.7691 Cl    322 CCL4  -0.0812 
1768 CL     -13.0331    13.1997     1.2042 Cl    322 CCL4  -0.0812 
1769 CL     -11.1981    11.1046     0.7360 Cl    322 CCL4  -0.0812 
1770 CL     -18.1581    14.1669     3.6461 Cl    323 CCL4  -0.0812 
1771 C      -17.4559    13.1691     2.2901 C.3   323 CCL4   0.3246 
1772 CL     -16.0721    12.3331     2.9645 Cl    323 CCL4  -0.0812 
1773 CL     -16.9010    14.3462     1.1199 Cl    323 CCL4  -0.0812 
1774 CL     -18.5722    12.0013     1.6788 Cl    323 CCL4  -0.0812 
1775 CL      -6.8801     9.8684    21.8904 Cl    324 CCL4  -0.0812 
1776 C       -7.1276     8.2976    22.6561 C.3   324 CCL4   0.3246 
1777 CL      -8.5064     8.3338    23.7396 Cl    324 CCL4  -0.0812 
1778 CL      -5.6705     7.8116    23.6013 Cl    324 CCL4  -0.0812 
1779 CL      -7.3503     7.0175    21.3771 Cl    324 CCL4  -0.0812 
1780 CL     -10.0828    14.4829    21.9424 Cl    325 CCL4  -0.0812 
1781 C      -10.4689    13.0277    22.9904 C.3   325 CCL4   0.3246 
1782 CL     -12.1725    13.0530    23.6010 Cl    325 CCL4  -0.0812 
1783 CL      -9.3425    12.8832    24.3890 Cl    325 CCL4  -0.0812 
1784 CL     -10.0856    11.6243    21.9615 Cl    325 CCL4  -0.0812 
1785 CL     -12.2317     7.4137   -15.1411 Cl    326 CCL4  -0.0812 
1786 C      -13.2458     8.6531   -14.4172 C.3   326 CCL4   0.3246 
1787 CL     -12.9165    10.1781   -15.2608 Cl    326 CCL4  -0.0812 
1788 CL     -12.6249     8.8970   -12.6991 Cl    326 CCL4  -0.0812 
1789 CL     -14.9213     8.1266   -14.4445 Cl    326 CCL4  -0.0812 
1790 CL       6.9961    12.8418   -11.2273 Cl    327 CCL4  -0.0812 
1791 C        6.6668    11.2143   -11.8840 C.3   327 CCL4   0.3246 
1792 CL       5.4159    10.3754   -10.9976 Cl    327 CCL4  -0.0812 
1793 CL       8.0591    10.2114   -11.6503 Cl    327 CCL4  -0.0812 
1794 CL       6.2539    11.4630   -13.6347 Cl    327 CCL4  -0.0812 
1795 CL       7.2810     4.8215   -11.4286 Cl    328 CCL4  -0.0812 
1796 C        5.8155     5.6974   -11.9533 C.3   328 CCL4   0.3246 
1797 CL       6.3805     6.9411   -13.1061 Cl    328 CCL4  -0.0812 
1798 CL       4.9232     6.4462   -10.6545 Cl    328 CCL4  -0.0812 
1799 CL       4.7140     4.6111   -12.9385 Cl    328 CCL4  -0.0812 
1800 CL       5.2062    12.0380    -6.4316 Cl    329 CCL4  -0.0812 
1801 C        4.4495    10.4701    -5.9517 C.3   329 CCL4   0.3246 
1802 CL       4.3414     9.4166    -7.4070 Cl    329 CCL4  -0.0812 
1803 CL       2.7696    10.8126    -5.3173 Cl    329 CCL4  -0.0812 
1804 CL       5.3958     9.5656    -4.6539 Cl    329 CCL4  -0.0812 
1805 CL       4.8082     6.4667    23.4615 Cl    330 CCL4  -0.0812 
1806 C        5.3523     7.9758    22.7336 C.3   330 CCL4   0.3246 
1807 CL       6.6232     8.7565    23.7771 Cl    330 CCL4  -0.0812 
1808 CL       4.0402     9.2184    22.6385 Cl    330 CCL4  -0.0812 
1809 CL       6.0204     7.8649    21.1661 Cl    330 CCL4  -0.0812 
1810 CL     -13.6195     6.8853    -3.7568 Cl    331 CCL4  -0.0812 
1811 C      -13.1473     5.4193    -4.7466 C.3   331 CCL4   0.3246 
1812 CL     -14.6913     4.9026    -5.4994 Cl    331 CCL4  -0.0812 
1813 CL     -12.3697     4.0991    -3.7676 Cl    331 CCL4  -0.0812 
1814 CL     -12.0679     6.0043    -6.0038 Cl    331 CCL4  -0.0812 
1815 CL      -6.6574    12.1854    -1.6705 Cl    332 CCL4  -0.0812 
1816 C       -5.9134    11.4867    -0.3168 C.3   332 CCL4   0.3246 
1817 CL      -6.9367    11.5200     1.1328 Cl    332 CCL4  -0.0812 
1818 CL      -4.5384    12.5067     0.1896 Cl    332 CCL4  -0.0812 
1819 CL      -5.3641     9.8574    -0.6481 Cl    332 CCL4  -0.0812 
1820 CL       7.5216     6.3358    -5.4225 Cl    333 CCL4  -0.0812 
1821 C        6.5590     4.9572    -6.1426 C.3   333 CCL4   0.3246 
1822 CL       7.4020     4.3135    -7.5965 Cl    333 CCL4  -0.0812 
1823 CL       4.9910     5.5888    -6.6214 Cl    333 CCL4  -0.0812 
1824 CL       6.2377     3.5739    -4.9809 Cl    333 CCL4  -0.0812 
1825 CL     -17.7694     4.0601    -1.4736 Cl    334 CCL4  -0.0812 
1826 C      -17.0023     2.4805    -1.8976 C.3   334 CCL4   0.3246 
1827 CL     -18.4101     1.4341    -2.2444 Cl    334 CCL4  -0.0812 
1828 CL     -16.1720     1.9964    -0.4167 Cl    334 CCL4  -0.0812 
1829 CL     -15.8425     2.4146    -3.2185 Cl    334 CCL4  -0.0812 
1830 CL      -7.8602    10.4470    -7.5972 Cl    335 CCL4  -0.0812 
1831 C       -6.9593    11.5197    -6.5235 C.3   335 CCL4   0.3246 
1832 CL      -5.7994    12.6071    -7.3320 Cl    335 CCL4  -0.0812 
1833 CL      -5.9873    10.4351    -5.2755 Cl    335 CCL4  -0.0812 
1834 CL      -8.0653    12.4852    -5.5438 Cl    335 CCL4  -0.0812 
1835 CL      -8.9375    13.7666    -8.7789 Cl    336 CCL4  -0.0812 
1836 C      -10.5115    14.0443    -7.9093 C.3   336 CCL4   0.3246 
1837 CL     -10.2383    14.9923    -6.4770 Cl    336 CCL4  -0.0812 
1838 CL     -11.2128    12.4270    -7.4638 Cl    336 CCL4  -0.0812 
1839 CL     -11.5414    14.9263    -8.9611 Cl    336 CCL4  -0.0812 
1840 CL      -3.9289     5.9206    -9.2158 Cl    337 CCL4  -0.0812 
1841 C       -5.4672     6.3450    -8.6273 C.3   337 CCL4   0.3246 
1842 CL      -6.5491     6.6639   -10.0698 Cl    337 CCL4  -0.0812 
1843 CL      -5.3775     7.7949    -7.6897 Cl    337 CCL4  -0.0812 
1844 CL      -6.2020     5.0621    -7.7000 Cl    337 CCL4  -0.0812 
1845 CL      -7.1120     7.2702    -2.8056 Cl    338 CCL4  -0.0812 
1846 C       -8.1424     6.2887    -3.7676 C.3   338 CCL4   0.3246 
1847 CL      -8.6210     7.1598    -5.2397 Cl    338 CCL4  -0.0812 
1848 CL      -9.5528     5.9319    -2.7978 Cl    338 CCL4  -0.0812 
1849 CL      -7.3431     4.8056    -4.1815 Cl    338 CCL4  -0.0812 
1850 CL      -2.5528    14.8593    -4.9467 Cl    339 CCL4  -0.0812 
1851 C       -1.9555    13.6570    -3.8401 C.3   339 CCL4   0.3246 
1852 CL      -2.7135    12.0874    -4.2444 Cl    339 CCL4  -0.0812 
1853 CL      -2.4172    14.0641    -2.1375 Cl    339 CCL4  -0.0812 
1854 CL      -0.1918    13.4472    -3.8532 Cl    339 CCL4  -0.0812 
1855 CL     -12.8440    10.1925    -2.0321 Cl    340 CCL4  -0.0812 
1856 C      -11.3590    10.4799    -2.9753 C.3   340 CCL4   0.3246 
1857 CL     -11.7300    10.1457    -4.6607 Cl    340 CCL4  -0.0812 
1858 CL     -10.1565     9.4130    -2.3256 Cl    340 CCL4  -0.0812 
1859 CL     -10.9329    12.2471    -2.8693 Cl    340 CCL4  -0.0812 
1860 CL       3.5371    14.7042    -2.5410 Cl    341 CCL4  -0.0812 
1861 C        4.8863    13.8984    -1.6410 C.3   341 CCL4   0.3246 
1862 CL       6.4841    14.2889    -2.4636 Cl    341 CCL4  -0.0812 
1863 CL       4.6352    12.1399    -1.7037 Cl    341 CCL4  -0.0812 
1864 CL       4.8926    14.5844     0.0239 Cl    341 CCL4  -0.0812 
1865 CL     -14.5421     9.9150    -8.7572 Cl    342 CCL4  -0.0812 
1866 C      -15.6372     8.9527    -7.8222 C.3   342 CCL4   0.3246 
1867 CL     -17.3237     9.2453    -8.2877 Cl    342 CCL4  -0.0812 
1868 CL     -15.5606     9.5136    -6.1874 Cl    342 CCL4  -0.0812 
1869 CL     -15.2196     7.2399    -7.9325 Cl    342 CCL4  -0.0812 
1870 CL       1.9723     3.9147   -10.1862 Cl    343 CCL4  -0.0812 
1871 C        2.9746     2.4087    -9.9872 C.3   343 CCL4   0.3246 
1872 CL       2.3172     1.6607    -8.4984 Cl    343 CCL4  -0.0812 
1873 CL       4.6957     2.8613    -9.5258 Cl    343 CCL4  -0.0812 
1874 CL       2.9053     1.4269   -11.4931 Cl    343 CCL4  -0.0812 
1875 CL     -11.3488     4.5336    -0.4189 Cl    344 CCL4  -0.0812 
1876 C      -12.6307     5.6222     0.2098 C.3   344 CCL4   0.3246 
1877 CL     -12.8577     5.0881     1.9201 Cl    344 CCL4  -0.0812 
1878 CL     -14.0785     5.4976    -0.7593 Cl    344 CCL4  -0.0812 
1879 CL     -12.1060     7.3252     0.1840 Cl    344 CCL4  -0.0812 
1880 CL     -19.1316     5.9712     3.0492 Cl    345 CCL4  -0.0812 
1881 C      -17.4857     6.4234     3.1748 C.3   345 CCL4   0.3246 
1882 CL     -17.1817     8.1747     3.3970 Cl    345 CCL4  -0.0812 
1883 CL     -16.6406     5.8885     1.6987 Cl    345 CCL4  -0.0812 
1884 CL     -16.7303     5.5142     4.4221 Cl    345 CCL4  -0.0812 
1885 CL      -8.8948    18.1289   -14.3450 Cl    346 CCL4  -0.0812 
1886 C       -9.5851    16.9988   -13.1486 C.3   346 CCL4   0.3246 
1887 CL     -10.7212    15.9034   -14.1475 Cl    346 CCL4  -0.0812 
1888 CL     -10.5379    18.0476   -11.9977 Cl    346 CCL4  -0.0812 
1889 CL      -8.4163    15.9297   -12.3843 Cl    346 CCL4  -0.0812 
1890 CL     -13.5048    20.8744   -11.5476 Cl    347 CCL4  -0.0812 
1891 C      -14.6295    20.0834   -10.4512 C.3   347 CCL4   0.3246 
1892 CL     -14.2304    18.4021   -10.1950 Cl    347 CCL4  -0.0812 
1893 CL     -16.2737    20.2058   -11.1977 Cl    347 CCL4  -0.0812 
1894 CL     -14.6384    20.8432    -8.8268 Cl    347 CCL4  -0.0812 
1895 CL       6.5313    17.7631    -0.7577 Cl    348 CCL4  -0.0812 
1896 C        6.4492    18.5248     0.7965 C.3   348 CCL4   0.3246 
1897 CL       5.6295    17.4623     1.9993 Cl    348 CCL4  -0.0812 
1898 CL       5.5655    20.0071     0.6605 Cl    348 CCL4  -0.0812 
1899 CL       8.1138    18.8122     1.3922 Cl    348 CCL4  -0.0812 
1900 CL     -13.8123    16.3195   -15.7958 Cl    349 CCL4  -0.0812 
1901 C      -13.5516    18.0321   -15.8909 C.3   349 CCL4   0.3246 
1902 CL     -14.6736    18.8868   -16.8550 Cl    349 CCL4  -0.0812 
1903 CL     -11.8281    18.2297   -16.6622 Cl    349 CCL4  -0.0812 
1904 CL     -13.3127    18.7140   -14.2323 Cl    349 CCL4  -0.0812 
1905 CL       4.7760    14.6197    -8.5165 Cl    350 CCL4  -0.0812 
1906 C        3.8138    15.4107    -7.2550 C.3   350 CCL4   0.3246 
1907 CL       4.8453    16.0261    -5.9527 Cl    350 CCL4  -0.0812 
1908 CL       2.5984    14.4289    -6.5174 Cl    350 CCL4  -0.0812 
1909 CL       3.1041    17.0114    -8.0121 Cl    350 CCL4  -0.0812 
1910 CL      -5.3506    21.1662    -2.5326 Cl    351 CCL4  -0.0812 
1911 C       -6.9355    21.1565    -1.7314 C.3   351 CCL4   0.3246 
1912 CL      -7.0724    19.9470    -0.4148 Cl    351 CCL4  -0.0812 
1913 CL      -8.2819    20.9202    -2.9701 Cl    351 CCL4  -0.0812 
1914 CL      -7.2939    22.8394    -1.1779 Cl    351 CCL4  -0.0812 
1915 CL      -8.0064    18.9683    -6.4837 Cl    352 CCL4  -0.0812 
1916 C       -7.3488    17.7551    -7.6087 C.3   352 CCL4   0.3246 
1917 CL      -8.4912    17.3430    -8.8582 Cl    352 CCL4  -0.0812 
1918 CL      -6.8544    16.3400    -6.7753 Cl    352 CCL4  -0.0812 
1919 CL      -6.0091    18.4655    -8.4881 Cl    352 CCL4  -0.0812 
1920 CL     -12.4875    15.8516    -1.4025 Cl    353 CCL4  -0.0812 
1921 C      -14.0115    15.4421    -2.1818 C.3   353 CCL4   0.3246 
1922 CL     -15.4049    16.1868    -1.4593 Cl    353 CCL4  -0.0812 
1923 CL     -14.1700    13.6605    -2.2065 Cl    353 CCL4  -0.0812 
1924 CL     -13.9286    15.9420    -3.8423 Cl    353 CCL4  -0.0812 
1925 CL     -10.6485    18.7286    -1.4264 Cl    354 CCL4  -0.0812 
1926 C      -11.0974    19.2182     0.2213 C.3   354 CCL4   0.3246 
1927 CL     -10.4205    17.8028     1.1556 Cl    354 CCL4  -0.0812 
1928 CL     -12.8756    19.2852     0.4442 Cl    354 CCL4  -0.0812 
1929 CL     -10.4196    20.7798     0.6680 Cl    354 CCL4  -0.0812 
1930 CL      -6.4053    15.6537    -0.8596 Cl    355 CCL4  -0.0812 
1931 C       -7.0391    15.7863    -2.5184 C.3   355 CCL4   0.3246 
1932 CL      -6.0297    14.9729    -3.7050 Cl    355 CCL4  -0.0812 
1933 CL      -7.2500    17.5834    -2.9733 Cl    355 CCL4  -0.0812 
1934 CL      -8.6003    15.0356    -2.6188 Cl    355 CCL4  -0.0812 
1935 CL     -17.5717    18.1583    -4.1806 Cl    356 CCL4  -0.0812 
1936 C      -17.6626    19.0210    -5.7379 C.3   356 CCL4   0.3246 
1937 CL     -16.8343    20.6619    -5.7418 Cl    356 CCL4  -0.0812 
1938 CL     -19.3897    19.5361    -5.9122 Cl    356 CCL4  -0.0812 
1939 CL     -17.0652    18.0551    -7.1385 Cl    356 CCL4  -0.0812 
1940 CL     -16.5309    14.6769    -5.4107 Cl    357 CCL4  -0.0812 
1941 C      -15.4471    14.0788    -6.6798 C.3   357 CCL4   0.3246 
1942 CL     -16.3934    12.7472    -7.3839 Cl    357 CCL4  -0.0812 
1943 CL     -14.1150    13.2268    -5.8664 Cl    357 CCL4  -0.0812 
1944 CL     -14.9393    15.3301    -7.8475 Cl    357 CCL4  -0.0812 
1945 CL      -3.2088    18.1560    -1.2811 Cl    358 CCL4  -0.0812 
1946 C       -3.0976    17.9731     0.4575 C.3   358 CCL4   0.3246 
1947 CL      -1.4165    18.6533     0.8904 Cl    358 CCL4  -0.0812 
1948 CL      -3.2052    16.2172     0.8496 Cl    358 CCL4  -0.0812 
1949 CL      -4.2916    18.9087     1.3372 Cl    358 CCL4  -0.0812 
1950 CL      -2.7695    10.4641   -12.9568 Cl    359 CCL4  -0.0812 
1951 C       -3.3196     9.0922   -11.9991 C.3   359 CCL4   0.3246 
1952 CL      -4.3061     9.6440   -10.6338 Cl    359 CCL4  -0.0812 
1953 CL      -1.8898     8.2924   -11.3975 Cl    359 CCL4  -0.0812 
1954 CL      -4.3564     8.0234   -13.0664 Cl    359 CCL4  -0.0812 
1955 CL       2.0717    12.5541    23.2408 Cl    360 CCL4  -0.0812 
1956 C        3.5435    13.5121    23.1365 C.3   360 CCL4   0.3246 
1957 CL       5.0240    12.4963    23.2711 Cl    360 CCL4  -0.0812 
1958 CL       3.6294    14.7987    24.3203 Cl    360 CCL4  -0.0812 
1959 CL       3.6641    14.3424    21.5362 Cl    360 CCL4  -0.0812 
1960 CL       1.0709     7.2369   -13.0046 Cl    361 CCL4  -0.0812 
1961 C        1.7941     8.8196   -12.9668 C.3   361 CCL4   0.3246 
1962 CL       2.1265     9.1861   -11.1792 Cl    361 CCL4  -0.0812 
1963 CL       0.6565    10.0848   -13.4915 Cl    361 CCL4  -0.0812 
1964 CL       3.2783     9.0143   -13.8960 Cl    361 CCL4  -0.0812 
1965 CL       2.6971    16.0204   -11.6928 Cl    362 CCL4  -0.0812 
1966 C        2.1589    14.2595   -11.7776 C.3   362 CCL4   0.3246 
1967 CL       0.7061    14.2612   -12.8464 Cl    362 CCL4  -0.0812 
1968 CL       1.8548    13.6636   -10.1540 Cl    362 CCL4  -0.0812 
1969 CL       3.5180    13.2709   -12.3807 Cl    362 CCL4  -0.0812 
1970 CL      -1.9702     9.9038   -16.7827 Cl    363 CCL4  -0.0812 
1971 C       -1.1026     8.4192   -16.7277 C.3   363 CCL4   0.3246 
1972 CL      -1.6216     7.1811   -17.9402 Cl    363 CCL4  -0.0812 
1973 CL      -1.4576     7.6134   -15.0435 Cl    363 CCL4  -0.0812 
1974 CL       0.6928     8.5756   -16.7705 Cl    363 CCL4  -0.0812 
1975 CL      -3.4541     4.8174   -14.7543 Cl    364 CCL4  -0.0812 
1976 C       -3.0799     3.9992   -13.2394 C.3   364 CCL4   0.3246 
1977 CL      -1.7838     4.8162   -12.3875 Cl    364 CCL4  -0.0812 
1978 CL      -2.5401     2.3082   -13.5348 Cl    364 CCL4  -0.0812 
1979 CL      -4.5643     3.7946   -12.1571 Cl    364 CCL4  -0.0812 
1980 CL       0.7721     1.6643   -16.4828 Cl    365 CCL4  -0.0812 
1981 C        0.8560     3.1532   -15.5449 C.3   365 CCL4   0.3246 
1982 CL       0.8582     2.9536   -13.8439 Cl    365 CCL4  -0.0812 
1983 CL      -0.4291     4.2660   -16.0179 Cl    365 CCL4  -0.0812 
1984 CL       2.2757     4.2164   -16.0613 Cl    365 CCL4  -0.0812 
1985 CL       0.4621     9.9987    -7.5585 Cl    366 CCL4  -0.0812 
1986 C       -0.7963    11.0894    -8.2052 C.3   366 CCL4   0.3246 
1987 CL      -2.5025    10.3855    -7.6771 Cl    366 CCL4  -0.0812 
1988 CL      -0.7758    11.1613    -9.9767 Cl    366 CCL4  -0.0812 
1989 CL      -0.8675    12.6950    -7.4209 Cl    366 CCL4  -0.0812 
1990 CL      -3.5240    14.2122    -9.1407 Cl    367 CCL4  -0.0812 
1991 C       -4.2018    14.5617   -10.7040 C.3   367 CCL4   0.3246 
1992 CL      -5.0203    13.0644   -11.1354 Cl    367 CCL4  -0.0812 
1993 CL      -3.0675    14.9732   -12.0371 Cl    367 CCL4  -0.0812 
1994 CL      -5.4420    15.8449   -10.6762 Cl    367 CCL4  -0.0812 
1995 CL      -1.1725     7.0415    -6.6662 Cl    368 CCL4  -0.0812 
1996 C        0.3064     6.3579    -7.3557 C.3   368 CCL4   0.3246 
1997 CL       0.5210     7.1206    -8.9946 Cl    368 CCL4  -0.0812 
1998 CL       0.2019     4.6063    -7.4668 Cl    368 CCL4  -0.0812 
1999 CL       1.7182     6.7456    -6.3707 Cl    368 CCL4  -0.0812 
2000 CL     -16.1924     8.5966    -2.4902 Cl    369 CCL4  -0.0812 
2001 C      -16.6205     9.5981    -1.1162 C.3   369 CCL4   0.3246 
2002 CL     -16.9924    11.2760    -1.5482 Cl    369 CCL4  -0.0812 
2003 CL     -18.1860     9.0276    -0.4115 Cl    369 CCL4  -0.0812 
2004 CL     -15.3777     9.4862     0.1626 Cl    369 CCL4  -0.0812 
2005 CL       0.3171    15.9150     2.1605 Cl    370 CCL4  -0.0812 
2006 C        1.9146    15.5464     1.4821 C.3   370 CCL4   0.3246 
2007 CL       2.5625    17.0442     0.6270 Cl    370 CCL4  -0.0812 
2008 CL       1.7269    14.2259     0.3512 Cl    370 CCL4  -0.0812 
2009 CL       3.0671    15.0544     2.8315 Cl    370 CCL4  -0.0812 
2010 CL      -3.9435     5.0539    -2.6961 Cl    371 CCL4  -0.0812 
2011 C       -2.8291     4.4203    -3.9984 C.3   371 CCL4   0.3246 
2012 CL      -2.6225     2.6877    -3.7945 Cl    371 CCL4  -0.0812 
2013 CL      -1.3838     5.3230    -3.6360 Cl    371 CCL4  -0.0812 
2014 CL      -3.4851     4.9199    -5.5611 Cl    371 CCL4  -0.0812 
2015 CL       2.1997    17.6232    -3.9793 Cl    372 CCL4  -0.0812 
2016 C        0.8527    17.9654    -2.9476 C.3   372 CCL4   0.3246 
2017 CL      -0.4779    18.6767    -3.8741 Cl    372 CCL4  -0.0812 
2018 CL       1.3583    19.4006    -2.0130 Cl    372 CCL4  -0.0812 
2019 CL       0.1629    16.6254    -1.9149 Cl    372 CCL4  -0.0812 
2020 CL      -4.5455    15.8984    22.4075 Cl    373 CCL4  -0.0812 
2021 C       -4.9707    17.6962    22.0362 C.3   373 CCL4   0.3246 
2022 CL      -4.0610    18.8129    23.0471 Cl    373 CCL4  -0.0812 
2023 CL      -6.7052    17.9170    22.4548 Cl    373 CCL4  -0.0812 
2024 CL      -4.5745    18.0512    20.3711 Cl    373 CCL4  -0.0812 
2025 CL       0.0765    18.7071    -9.6444 Cl    374 CCL4  -0.0812 
2026 C       -0.9412    17.4450    -8.8528 C.3   374 CCL4   0.3246 
2027 CL      -0.5913    17.3502    -7.0950 Cl    374 CCL4  -0.0812 
2028 CL      -0.6256    15.8447    -9.5363 Cl    374 CCL4  -0.0812 
2029 CL      -2.7051    17.7473    -9.1897 Cl    374 CCL4  -0.0812 
2030 CL     -17.7668    14.9606    10.9494 Cl    375 CCL4  -0.0812 
2031 C      -18.0011    16.6020    11.6135 C.3   375 CCL4   0.3246 
2032 CL     -19.4959    17.2290    10.9053 Cl    375 CCL4  -0.0812 
2033 CL     -16.5781    17.6586    11.3911 Cl    375 CCL4  -0.0812 
2034 CL     -18.2128    16.3913    13.3769 Cl    375 CCL4  -0.0812 
2035 CL      -6.1099    13.0064     7.8085 Cl    376 CCL4  -0.0812 
2036 C       -5.6086    13.0062     9.4290 C.3   376 CCL4   0.3246 
2037 CL      -5.9451    11.5106    10.2138 Cl    376 CCL4  -0.0812 
2038 CL      -6.1668    14.3616    10.3151 Cl    376 CCL4  -0.0812 
2039 CL      -3.8165    13.1327     9.4067 Cl    376 CCL4  -0.0812 
2040 CL      -8.2252     3.8368    13.5962 Cl    377 CCL4  -0.0812 
2041 C       -8.8230     4.8547    12.2010 C.3   377 CCL4   0.3246 
2042 CL     -10.0615     4.0759    11.1185 Cl    377 CCL4  -0.0812 
2043 CL      -7.4454     5.4155    11.2020 Cl    377 CCL4  -0.0812 
2044 CL      -9.5539     6.3934    12.9415 Cl    377 CCL4  -0.0812 
2045 CL     -13.9568    15.3129    12.8431 Cl    378 CCL4  -0.0812 
2046 C      -13.6706    13.5579    12.9702 C.3   378 CCL4   0.3246 
2047 CL     -13.9154    13.0428    14.6610 Cl    378 CCL4  -0.0812 
2048 CL     -12.1315    12.9585    12.4068 Cl    378 CCL4  -0.0812 
2049 CL     -14.9246    12.7447    12.0024 Cl    378 CCL4  -0.0812 
2050 CL      -8.5111    12.3952    12.6758 Cl    379 CCL4  -0.0812 
2051 C       -9.0196    10.6679    12.8919 C.3   379 CCL4   0.3246 
2052 CL      -7.5925     9.7245    13.3561 Cl    379 CCL4  -0.0812 
2053 CL      -9.6807     9.9852    11.4395 Cl    379 CCL4  -0.0812 
2054 CL     -10.1152    10.5526    14.3429 Cl    379 CCL4  -0.0812 
2055 CL     -13.6167     4.5176     8.7792 Cl    380 CCL4  -0.0812 
2056 C      -15.3981     3.9917     8.9285 C.3   380 CCL4   0.3246 
2057 CL     -15.4135     2.2986     9.1348 Cl    380 CCL4  -0.0812 
2058 CL     -16.3674     4.4234     7.4407 Cl    380 CCL4  -0.0812 
2059 CL     -16.0595     4.9215    10.3513 Cl    380 CCL4  -0.0812 
2060 CL      -9.4274     4.4286    16.6830 Cl    381 CCL4  -0.0812 
2061 C       -9.9283     2.7928    17.0384 C.3   381 CCL4   0.3246 
2062 CL      -8.6958     1.6623    16.4952 Cl    381 CCL4  -0.0812 
2063 CL     -11.3657     2.3835    16.0842 Cl    381 CCL4  -0.0812 
2064 CL     -10.2578     2.6299    18.7248 Cl    381 CCL4  -0.0812 
2065 CL     -13.1045     5.1520    12.6211 Cl    382 CCL4  -0.0812 
2066 C      -13.8485     5.6426    14.1724 C.3   382 CCL4   0.3246 
2067 CL     -12.6245     6.1313    15.2451 Cl    382 CCL4  -0.0812 
2068 CL     -14.7254     4.2290    14.7883 Cl    382 CCL4  -0.0812 
2069 CL     -15.0390     6.9853    13.8675 Cl    382 CCL4  -0.0812 
2070 CL       5.5083     3.0586     9.0094 Cl    383 CCL4  -0.0812 
2071 C        5.3397     2.3309     7.3953 C.3   383 CCL4   0.3246 
2072 CL       3.9769     1.1666     7.2990 Cl    383 CCL4  -0.0812 
2073 CL       6.9330     1.6985     6.9674 Cl    383 CCL4  -0.0812 
2074 CL       4.9944     3.7177     6.2904 Cl    383 CCL4  -0.0812 
2075 CL      -6.8801     9.8684     6.8904 Cl    384 CCL4  -0.0812 
2076 C       -7.1276     8.2976     7.6561 C.3   384 CCL4   0.3246 
2077 CL      -8.5064     8.3338     8.7396 Cl    384 CCL4  -0.0812 
2078 CL      -5.6705     7.8116     8.6013 Cl    384 CCL4  -0.0812 
2079 CL      -7.3503     7.0175     6.3771 Cl    384 CCL4  -0.0812 
2080 CL     -13.6814     8.0936     3.7092 Cl    385 CCL4  -0.0812 
2081 C      -13.2098     7.5003     5.3197 C.3   385 CCL4   0.3246 
2082 CL     -14.3899     8.0828     6.4788 Cl    385 CCL4  -0.0812 
2083 CL     -11.6727     8.2436     5.7720 Cl    385 CCL4  -0.0812 
2084 CL     -13.0048     5.7481     5.2452 Cl    385 CCL4  -0.0812 
2085 CL     -10.0828    14.4829     6.9424 Cl    386 CCL4  -0.0812 
2086 C      -10.4689    13.0277     7.9904 C.3   386 CCL4   0.3246 
2087 CL     -12.1725    13.0530     8.6010 Cl    386 CCL4  -0.0812 
2088 CL      -9.3425    12.8832     9.3890 Cl    386 CCL4  -0.0812 
2089 CL     -10.0856    11.6243     6.9615 Cl    386 CCL4  -0.0812 
2090 CL     -17.2520    11.0082     6.1293 Cl    387 CCL4  -0.0812 
2091 C      -16.0067    11.9419     6.9653 C.3   387 CCL4   0.3246 
2092 CL     -16.1968    11.4867     8.7626 Cl    387 CCL4  -0.0812 
2093 CL     -16.3807    13.7364     7.0694 Cl    387 CCL4  -0.0812 
2094 CL     -14.4956    11.4357     6.3754 Cl    387 CCL4  -0.0812 
2095 CL     -12.2317     7.4137     9.8589 Cl    388 CCL4  -0.0812 
2096 C      -13.2458     8.6531    10.5828 C.3   388 CCL4   0.3246 
2097 CL     -12.9165    10.1781     9.7392 Cl    388 CCL4  -0.0812 
2098 CL     -12.6249     8.8970    12.3009 Cl    388 CCL4  -0.0812 
2099 CL     -14.9213     8.1266    10.5555 Cl    388 CCL4  -0.0812 
2100 CL       6.9961    12.8418    13.7727 Cl    389 CCL4  -0.0812 
2101 C        6.6668    11.2143    13.1160 C.3   389 CCL4   0.3246 
2102 CL       5.4159    10.3754    14.0024 Cl    389 CCL4  -0.0812 
2103 CL       8.0591    10.2114    13.3497 Cl    389 CCL4  -0.0812 
2104 CL       6.2539    11.4630    11.3653 Cl    389 CCL4  -0.0812 
2105 CL       7.2810     4.8215    13.5714 Cl    390 CCL4  -0.0812 
2106 C        5.8155     5.6974    13.0467 C.3   390 CCL4   0.3246 
2107 CL       6.3805     6.9411    11.8939 Cl    390 CCL4  -0.0812 
2108 CL       4.9232     6.4462    14.3455 Cl    390 CCL4  -0.0812 
2109 CL       4.7140     4.6111    12.0615 Cl    390 CCL4  -0.0812 
2110 CL       4.8082     6.4667     8.4615 Cl    391 CCL4  -0.0812 
2111 C        5.3523     7.9758     7.7336 C.3   391 CCL4   0.3246 
2112 CL       6.6232     8.7565     8.7771 Cl    391 CCL4  -0.0812 
2113 CL       4.0402     9.2184     7.6385 Cl    391 CCL4  -0.0812 
2114 CL       6.0204     7.8649     6.1661 Cl    391 CCL4  -0.0812 
2115 CL     -13.6195     6.8853    21.2432 Cl    392 CCL4  -0.0812 
2116 C      -13.1473     5.4193    20.2534 C.3   392 CCL4   0.3246 
2117 CL     -14.6913     4.9026    19.5006 Cl    392 CCL4  -0.0812 
2118 CL     -12.3697     4.0991    21.2324 Cl    392 CCL4  -0.0812 
2119 CL     -12.0679     6.0043    18.9962 Cl    392 CCL4  -0.0812 
2120 CL      -7.8602    10.4470    17.4028 Cl    393 CCL4  -0.0812 
2121 C       -6.9593    11.5197    18.4765 C.3   393 CCL4   0.3246 
2122 CL      -5.7994    12.6071    17.6680 Cl    393 CCL4  -0.0812 
2123 CL      -5.9873    10.4351    19.7245 Cl    393 CCL4  -0.0812 
2124 CL      -8.0653    12.4852    19.4562 Cl    393 CCL4  -0.0812 
2125 CL      -8.9375    13.7666    16.2211 Cl    394 CCL4  -0.0812 
2126 C      -10.5115    14.0443    17.0907 C.3   394 CCL4   0.3246 
2127 CL     -10.2383    14.9923    18.5230 Cl    394 CCL4  -0.0812 
2128 CL     -11.2128    12.4270    17.5362 Cl    394 CCL4  -0.0812 
2129 CL     -11.5414    14.9263    16.0389 Cl    394 CCL4  -0.0812 
2130 CL      -3.9289     5.9206    15.7842 Cl    395 CCL4  -0.0812 
2131 C       -5.4672     6.3450    16.3727 C.3   395 CCL4   0.3246 
2132 CL      -6.5491     6.6639    14.9302 Cl    395 CCL4  -0.0812 
2133 CL      -5.3775     7.7949    17.3103 Cl    395 CCL4  -0.0812 
2134 CL      -6.2020     5.0621    17.3000 Cl    395 CCL4  -0.0812 
2135 CL     -14.5421     9.9150    16.2428 Cl    396 CCL4  -0.0812 
2136 C      -15.6372     8.9527    17.1778 C.3   396 CCL4   0.3246 
2137 CL     -17.3237     9.2453    16.7123 Cl    396 CCL4  -0.0812 
2138 CL     -15.5606     9.5136    18.8126 Cl    396 CCL4  -0.0812 
2139 CL     -15.2196     7.2399    17.0675 Cl    396 CCL4  -0.0812 
2140 CL       1.9723     3.9147    14.8138 Cl    397 CCL4  -0.0812 
2141 C        2.9746     2.4087    15.0128 C.3   397 CCL4   0.3246 
2142 CL       2.3172     1.6607    16.5016 Cl    397 CCL4  -0.0812 
2143 CL       4.6957     2.8613    15.4742 Cl    397 CCL4  -0.0812 
2144 CL       2.9053     1.4269    13.5069 Cl    397 CCL4  -0.0812 
2145 CL      -8.8948    18.1289    10.6550 Cl    398 CCL4  -0.0812 
2146 C       -9.5851    16.9988    11.8514 C.3   398 CCL4   0.3246 
2147 CL     -10.7212    15.9034    10.8525 Cl    398 CCL4  -0.0812 
2148 CL     -10.5379    18.0476    13.0023 Cl    398 CCL4  -0.0812 
2149 CL      -8.4163    15.9297    12.6157 Cl    398 CCL4  -0.0812 
2150 CL     -13.5048    20.8744    13.4524 Cl    399 CCL4  -0.0812 
2151 C      -14.6295    20.0834    14.5488 C.3   399 CCL4   0.3246 
2152 CL     -14.2304    18.4021    14.8050 Cl    399 CCL4  -0.0812 
2153 CL     -16.2737    20.2058    13.8023 Cl    399 CCL4  -0.0812 
2154 CL     -14.6384    20.8432    16.1732 Cl    399 CCL4  -0.0812 
2155 CL      -7.3268    19.5592     3.6776 Cl    400 CCL4  -0.0812 
2156 C       -7.9640    20.6477     4.9663 C.3   400 CCL4   0.3246 
2157 CL      -9.2864    19.9259     5.9489 Cl    400 CCL4  -0.0812 
2158 CL      -8.5099    22.0986     4.1391 Cl    400 CCL4  -0.0812 
2159 CL      -6.6078    21.1789     5.9182 Cl    400 CCL4  -0.0812 
2160 CL     -13.6099    14.3620     4.9609 Cl    401 CCL4  -0.0812 
2161 C      -13.0977    15.8138     4.1991 C.3   401 CCL4   0.3246 
2162 CL     -13.2980    17.1573     5.2807 Cl    401 CCL4  -0.0812 
2163 CL     -13.9431    16.2238     2.7249 Cl    401 CCL4  -0.0812 
2164 CL     -11.3112    15.7789     3.8836 Cl    401 CCL4  -0.0812 
2165 CL     -13.8123    16.3195     9.2042 Cl    402 CCL4  -0.0812 
2166 C      -13.5516    18.0321     9.1091 C.3   402 CCL4   0.3246 
2167 CL     -14.6736    18.8868     8.1450 Cl    402 CCL4  -0.0812 
2168 CL     -11.8281    18.2297     8.3378 Cl    402 CCL4  -0.0812 
2169 CL     -13.3127    18.7140    10.7677 Cl    402 CCL4  -0.0812 
2170 CL     -17.6743    17.0516     7.6360 Cl    403 CCL4  -0.0812 
2171 C      -18.0056    17.8201     6.0628 C.3   403 CCL4   0.3246 
2172 CL     -19.6447    17.6194     5.5307 Cl    403 CCL4  -0.0812 
2173 CL     -17.0044    17.1560     4.8097 Cl    403 CCL4  -0.0812 
2174 CL     -17.7805    19.5474     6.2147 Cl    403 CCL4  -0.0812 
2175 CL       4.7760    14.6197    16.4835 Cl    404 CCL4  -0.0812 
2176 C        3.8138    15.4107    17.7450 C.3   404 CCL4   0.3246 
2177 CL       4.8453    16.0261    19.0473 Cl    404 CCL4  -0.0812 
2178 CL       2.5984    14.4289    18.4826 Cl    404 CCL4  -0.0812 
2179 CL       3.1041    17.0114    16.9879 Cl    404 CCL4  -0.0812 
2180 CL      -5.1004    14.2895     4.2687 Cl    405 CCL4  -0.0812 
2181 C       -6.8020    14.3476     3.9832 C.3   405 CCL4   0.3246 
2182 CL      -7.5079    12.8843     4.4421 Cl    405 CCL4  -0.0812 
2183 CL      -7.1377    14.7981     2.2434 Cl    405 CCL4  -0.0812 
2184 CL      -7.4567    15.7159     5.0001 Cl    405 CCL4  -0.0812 
2185 CL      -8.0064    18.9683    18.5163 Cl    406 CCL4  -0.0812 
2186 C       -7.3488    17.7551    17.3913 C.3   406 CCL4   0.3246 
2187 CL      -8.4912    17.3430    16.1418 Cl    406 CCL4  -0.0812 
2188 CL      -6.8544    16.3400    18.2247 Cl    406 CCL4  -0.0812 
2189 CL      -6.0091    18.4655    16.5119 Cl    406 CCL4  -0.0812 
2190 CL     -17.5717    18.1583    20.8194 Cl    407 CCL4  -0.0812 
2191 C      -17.6626    19.0210    19.2621 C.3   407 CCL4   0.3246 
2192 CL     -16.8343    20.6619    19.2582 Cl    407 CCL4  -0.0812 
2193 CL     -19.3897    19.5361    19.0878 Cl    407 CCL4  -0.0812 
2194 CL     -17.0652    18.0551    17.8615 Cl    407 CCL4  -0.0812 
2195 CL     -16.5309    14.6769    19.5893 Cl    408 CCL4  -0.0812 
2196 C      -15.4471    14.0788    18.3202 C.3   408 CCL4   0.3246 
2197 CL     -16.3934    12.7472    17.6161 Cl    408 CCL4  -0.0812 
2198 CL     -14.1150    13.2268    19.1336 Cl    408 CCL4  -0.0812 
2199 CL     -14.9393    15.3301    17.1525 Cl    408 CCL4  -0.0812 
2200 CL      -2.7695    10.4641    12.0432 Cl    409 CCL4  -0.0812 
2201 C       -3.3196     9.0922    13.0009 C.3   409 CCL4   0.3246 
2202 CL      -4.3061     9.6440    14.3662 Cl    409 CCL4  -0.0812 
2203 CL      -1.8898     8.2924    13.6025 Cl    409 CCL4  -0.0812 
2204 CL      -4.3564     8.0234    11.9336 Cl    409 CCL4  -0.0812 
2205 CL       2.0717    12.5541     8.2408 Cl    410 CCL4  -0.0812 
2206 C        3.5435    13.5121     8.1365 C.3   410 CCL4   0.3246 
2207 CL       5.0240    12.4963     8.2711 Cl    410 CCL4  -0.0812 
2208 CL       3.6294    14.7987     9.3203 Cl    410 CCL4  -0.0812 
2209 CL       3.6641    14.3424     6.5362 Cl    410 CCL4  -0.0812 
2210 CL       1.0709     7.2369    11.9954 Cl    411 CCL4  -0.0812 
2211 C        1.7941     8.8196    12.0332 C.3   411 CCL4   0.3246 
2212 CL       2.1265     9.1861    13.8208 Cl    411 CCL4  -0.0812 
2213 CL       0.6565    10.0848    11.5085 Cl    411 CCL4  -0.0812 
2214 CL       3.2783     9.0143    11.1040 Cl    411 CCL4  -0.0812 
2215 CL       2.6971    16.0204    13.3072 Cl    412 CCL4  -0.0812 
2216 C        2.1589    14.2595    13.2224 C.3   412 CCL4   0.3246 
2217 CL       0.7061    14.2612    12.1536 Cl    412 CCL4  -0.0812 
2218 CL       1.8548    13.6636    14.8460 Cl    412 CCL4  -0.0812 
2219 CL       3.5180    13.2709    12.6193 Cl    412 CCL4  -0.0812 
2220 CL      -1.9702     9.9038     8.2173 Cl    413 CCL4  -0.0812 
2221 C       -1.1026     8.4192     8.2723 C.3   413 CCL4   0.3246 
2222 CL      -1.6216     7.1811     7.0598 Cl    413 CCL4  -0.0812 
2223 CL      -1.4576     7.6134     9.9565 Cl    413 CCL4  -0.0812 
2224 CL       0.6928     8.5756     8.2295 Cl    413 CCL4  -0.0812 
2225 CL      -3.4541     4.8174    10.2457 Cl    414 CCL4  -0.0812 
2226 C       -3.0799     3.9992    11.7606 C.3   414 CCL4   0.3246 
2227 CL      -1.7838     4.8162    12.6125 Cl    414 CCL4  -0.0812 
2228 CL      -2.5401     2.3082    11.4652 Cl    414 CCL4  -0.0812 
2229 CL      -4.5643     3.7946    12.8429 Cl    414 CCL4  -0.0812 
2230 CL       0.3680    13.7251     5.2742 Cl    415 CCL4  -0.0812 
2231 C       -1.3169    14.0317     4.8306 C.3   415 CCL4   0.3246 
2232 CL      -2.3449    13.2178     6.0197 Cl    415 CCL4  -0.0812 
2233 CL      -1.7329    13.4340     3.1881 Cl    415 CCL4  -0.0812 
2234 CL      -1.8497    15.7243     4.9293 Cl    415 CCL4  -0.0812 
2235 CL       0.7721     1.6643     8.5172 Cl    416 CCL4  -0.0812 
2236 C        0.8560     3.1532     9.4551 C.3   416 CCL4   0.3246 
2237 CL       0.8582     2.9536    11.1561 Cl    416 CCL4  -0.0812 
2238 CL      -0.4291     4.2660     8.9821 Cl    416 CCL4  -0.0812 
2239 CL       2.2757     4.2164     8.9387 Cl    416 CCL4  -0.0812 
2240 CL       0.4621     9.9987    17.4415 Cl    417 CCL4  -0.0812 
2241 C       -0.7963    11.0894    16.7948 C.3   417 CCL4   0.3246 
2242 CL      -2.5025    10.3855    17.3229 Cl    417 CCL4  -0.0812 
2243 CL      -0.7758    11.1613    15.0233 Cl    417 CCL4  -0.0812 
2244 CL      -0.8675    12.6950    17.5791 Cl    417 CCL4  -0.0812 
2245 CL      -3.5240    14.2122    15.8593 Cl    418 CCL4  -0.0812 
2246 C       -4.2018    14.5617    14.2960 C.3   418 CCL4   0.3246 
2247 CL      -5.0203    13.0644    13.8646 Cl    418 CCL4  -0.0812 
2248 CL      -3.0675    14.9732    12.9629 Cl    418 CCL4  -0.0812 
2249 CL      -5.4420    15.8449    14.3238 Cl    418 CCL4  -0.0812 
2250 CL      -1.1725     7.0415    18.3338 Cl    419 CCL4  -0.0812 
2251 C        0.3064     6.3579    17.6443 C.3   419 CCL4   0.3246 
2252 CL       0.5210     7.1206    16.0054 Cl    419 CCL4  -0.0812 
2253 CL       0.2019     4.6063    17.5332 Cl    419 CCL4  -0.0812 
2254 CL       1.7182     6.7456    18.6293 Cl    419 CCL4  -0.0812 
2255 CL      -4.5455    15.8984     7.4075 Cl    420 CCL4  -0.0812 
2256 C       -4.9707    17.6962     7.0362 C.3   420 CCL4   0.3246 
2257 CL      -4.0610    18.8129     8.0471 Cl    420 CCL4  -0.0812 
2258 CL      -6.7052    17.9170     7.4548 Cl    420 CCL4  -0.0812 
2259 CL      -4.5745    18.0512     5.3711 Cl    420 CCL4  -0.0812 
2260 CL       0.0765    18.7071    15.3556 Cl    421 CCL4  -0.0812 
2261 C       -0.9412    17.4450    16.1472 C.3   421 CCL4   0.3246 
2262 CL      -0.5913    17.3502    17.9050 Cl    421 CCL4  -0.0812 
2263 CL      -0.6256    15.8447    15.4637 Cl    421 CCL4  -0.0812 
2264 CL      -2.7051    17.7473    15.8103 Cl    421 CCL4  -0.0812 
2265 CL       7.2332   -10.0394   -14.0506 Cl    422 CCL4  -0.0812 
2266 C        6.9989    -8.3980   -13.3865 C.3   422 CCL4   0.3246 
2267 CL       5.5041    -7.7710   -14.0947 Cl    422 CCL4  -0.0812 
2268 CL       8.4219    -7.3414   -13.6089 Cl    422 CCL4  -0.0812 
2269 CL       6.7872    -8.6087   -11.6231 Cl    422 CCL4  -0.0812 
2270 CL      11.0432    -9.6871   -12.1569 Cl    423 CCL4  -0.0812 
2271 C       11.3294   -11.4421   -12.0298 C.3   423 CCL4   0.3246 
2272 CL      11.0846   -11.9572   -10.3390 Cl    423 CCL4  -0.0812 
2273 CL      12.8685   -12.0415   -12.5932 Cl    423 CCL4  -0.0812 
2274 CL      10.0754   -12.2553   -12.9976 Cl    423 CCL4  -0.0812 
2275 CL      18.1479   -17.5350     2.8566 Cl    424 CCL4  -0.0812 
2276 C       16.4761   -16.9377     2.7297 C.3   424 CCL4   0.3246 
2277 CL      16.1202   -16.6857     0.9360 Cl    424 CCL4  -0.0812 
2278 CL      16.1466   -15.4142     3.5694 Cl    424 CCL4  -0.0812 
2279 CL      15.2422   -18.1607     3.1545 Cl    424 CCL4  -0.0812 
2280 CL      12.4925    -0.8051   -11.9746 Cl    425 CCL4  -0.0812 
2281 C       13.0267     0.7563   -12.6600 C.3   425 CCL4   0.3246 
2282 CL      12.0986     2.1713   -12.1262 Cl    425 CCL4  -0.0812 
2283 CL      13.1734     0.7666   -14.4075 Cl    425 CCL4  -0.0812 
2284 CL      14.6602     1.0221   -12.0028 Cl    425 CCL4  -0.0812 
2285 CL      16.4889   -12.6048   -12.3242 Cl    426 CCL4  -0.0812 
2286 C       15.9804   -14.3321   -12.1081 C.3   426 CCL4   0.3246 
2287 CL      17.4075   -15.2755   -11.6439 Cl    426 CCL4  -0.0812 
2288 CL      15.3193   -15.0148   -13.5605 Cl    426 CCL4  -0.0812 
2289 CL      14.8848   -14.4474   -10.6571 Cl    426 CCL4  -0.0812 
2290 CL      11.3833    23.4837   -16.2208 Cl    427 CCL4  -0.0812 
2291 C        9.6019    22.9578   -16.0715 C.3   427 CCL4   0.3246 
2292 CL       9.5865    21.2647   -15.8652 Cl    427 CCL4  -0.0812 
2293 CL       8.6326    23.3895   -17.5593 Cl    427 CCL4  -0.0812 
2294 CL       8.9405    23.8876   -14.6487 Cl    427 CCL4  -0.0812 
2295 CL      15.5726    23.3947    -8.3170 Cl    428 CCL4  -0.0812 
2296 C       15.0717    21.7589    -7.9616 C.3   428 CCL4   0.3246 
2297 CL      16.3042    20.6284    -8.5048 Cl    428 CCL4  -0.0812 
2298 CL      13.6343    21.3497    -8.9158 Cl    428 CCL4  -0.0812 
2299 CL      14.7422    21.5960    -6.2752 Cl    428 CCL4  -0.0812 
2300 CL      11.8955   -19.8480   -12.3789 Cl    429 CCL4  -0.0812 
2301 C       11.1515   -19.3574   -10.8276 C.3   429 CCL4   0.3246 
2302 CL      12.3755   -18.8687    -9.7549 Cl    429 CCL4  -0.0812 
2303 CL      10.2746   -20.7710   -10.2117 Cl    429 CCL4  -0.0812 
2304 CL       9.9610   -18.0147   -11.1325 Cl    429 CCL4  -0.0812 
2305 CL      11.9361    -0.4140    22.7292 Cl    430 CCL4  -0.0812 
2306 C       13.4577    -0.1249    21.8713 C.3   430 CCL4   0.3246 
2307 CL      13.7940     1.6470    22.3104 Cl    430 CCL4  -0.0812 
2308 CL      13.2233    -0.1927    20.1209 Cl    430 CCL4  -0.0812 
2309 CL      14.8180    -1.2109    22.2544 Cl    430 CCL4  -0.0812 
2310 CL      13.9433   -12.4234     3.2574 Cl    431 CCL4  -0.0812 
2311 C       13.6373   -12.2732     1.5521 C.3   431 CCL4   0.3246 
2312 CL      14.7076   -11.1050     0.7691 Cl    431 CCL4  -0.0812 
2313 CL      11.9669   -11.8003     1.2042 Cl    431 CCL4  -0.0812 
2314 CL      13.8019   -13.8954     0.7360 Cl    431 CCL4  -0.0812 
2315 CL       6.8419   -10.8331     3.6461 Cl    432 CCL4  -0.0812 
2316 C        7.5441   -11.8309     2.2901 C.3   432 CCL4   0.3246 
2317 CL       8.9279   -12.6669     2.9645 Cl    432 CCL4  -0.0812 
2318 CL       8.0990   -10.6538     1.1199 Cl    432 CCL4  -0.0812 
2319 CL       6.4278   -12.9987     1.6788 Cl    432 CCL4  -0.0812 
2320 CL      12.7683   -17.5863   -15.1411 Cl    433 CCL4  -0.0812 
2321 C       11.7542   -16.3469   -14.4172 C.3   433 CCL4   0.3246 
2322 CL      12.0835   -14.8219   -15.2608 Cl    433 CCL4  -0.0812 
2323 CL      12.3751   -16.1030   -12.6991 Cl    433 CCL4  -0.0812 
2324 CL      10.0787   -16.8734   -14.4445 Cl    433 CCL4  -0.0812 
2325 CL       8.8807     1.5193   -12.7723 Cl    434 CCL4  -0.0812 
2326 C        7.5238     0.7565   -11.8829 C.3   434 CCL4   0.3246 
2327 CL       6.0049     1.3391   -12.6452 Cl    434 CCL4  -0.0812 
2328 CL       7.5328     1.3478   -10.2324 Cl    434 CCL4  -0.0812 
2329 CL       7.7921    -0.9809   -11.9781 Cl    434 CCL4  -0.0812 
2330 CL      11.3805   -18.1147    -3.7568 Cl    435 CCL4  -0.0812 
2331 C       11.8527   -19.5807    -4.7466 C.3   435 CCL4   0.3246 
2332 CL      10.3087   -20.0974    -5.4994 Cl    435 CCL4  -0.0812 
2333 CL      12.6303   -20.9009    -3.7676 Cl    435 CCL4  -0.0812 
2334 CL      12.9321   -18.9957    -6.0038 Cl    435 CCL4  -0.0812 
2335 CL      16.0625   -11.2334    -8.7789 Cl    436 CCL4  -0.0812 
2336 C       14.4885   -10.9557    -7.9093 C.3   436 CCL4   0.3246 
2337 CL      14.7617   -10.0077    -6.4770 Cl    436 CCL4  -0.0812 
2338 CL      13.7872   -12.5730    -7.4638 Cl    436 CCL4  -0.0812 
2339 CL      13.4586   -10.0737    -8.9611 Cl    436 CCL4  -0.0812 
2340 CL      14.3702    -1.5297    -2.8069 Cl    437 CCL4  -0.0812 
2341 C       13.7812     0.0802    -2.0889 C.3   437 CCL4   0.3246 
2342 CL      13.9116    -0.1656    -0.3434 Cl    437 CCL4  -0.0812 
2343 CL      12.2004     0.6588    -2.4845 Cl    437 CCL4  -0.0812 
2344 CL      15.0092     1.3661    -2.5104 Cl    437 CCL4  -0.0812 
2345 CL      12.1560   -14.8075    -2.0321 Cl    438 CCL4  -0.0812 
2346 C       13.6410   -14.5201    -2.9753 C.3   438 CCL4   0.3246 
2347 CL      13.2700   -14.8543    -4.6607 Cl    438 CCL4  -0.0812 
2348 CL      14.8435   -15.5870    -2.3256 Cl    438 CCL4  -0.0812 
2349 CL      14.0671   -12.7529    -2.8693 Cl    438 CCL4  -0.0812 
2350 CL      10.4579   -15.0850    -8.7572 Cl    439 CCL4  -0.0812 
2351 C        9.3628   -16.0473    -7.8222 C.3   439 CCL4   0.3246 
2352 CL       7.6763   -15.7547    -8.2877 Cl    439 CCL4  -0.0812 
2353 CL       9.4394   -15.4864    -6.1874 Cl    439 CCL4  -0.0812 
2354 CL       9.7804   -17.7601    -7.9325 Cl    439 CCL4  -0.0812 
2355 CL      13.6512   -20.4664    -0.4189 Cl    440 CCL4  -0.0812 
2356 C       12.3693   -19.3778     0.2098 C.3   440 CCL4   0.3246 
2357 CL      12.1423   -19.9119     1.9201 Cl    440 CCL4  -0.0812 
2358 CL      10.9215   -19.5024    -0.7593 Cl    440 CCL4  -0.0812 
2359 CL      12.8940   -17.6748     0.1840 Cl    440 CCL4  -0.0812 
2360 CL      16.1052    -6.8711   -14.3450 Cl    441 CCL4  -0.0812 
2361 C       15.4149    -8.0012   -13.1486 C.3   441 CCL4   0.3246 
2362 CL      14.2788    -9.0966   -14.1475 Cl    441 CCL4  -0.0812 
2363 CL      14.4621    -6.9524   -11.9977 Cl    441 CCL4  -0.0812 
2364 CL      16.5837    -9.0703   -12.3843 Cl    441 CCL4  -0.0812 
2365 CL      15.4089    -2.8688    -6.9635 Cl    442 CCL4  -0.0812 
2366 C       15.0208    -3.1843    -8.7204 C.3   442 CCL4   0.3246 
2367 CL      13.8218    -4.6057    -8.7371 Cl    442 CCL4  -0.0812 
2368 CL      16.5640    -3.7715    -9.4833 Cl    442 CCL4  -0.0812 
2369 CL      14.3768    -1.8030    -9.4701 Cl    442 CCL4  -0.0812 
2370 CL      11.4952    -4.1256   -11.5476 Cl    443 CCL4  -0.0812 
2371 C       10.3705    -4.9166   -10.4512 C.3   443 CCL4   0.3246 
2372 CL      10.7696    -6.5979   -10.1950 Cl    443 CCL4  -0.0812 
2373 CL       8.7263    -4.7942   -11.1977 Cl    443 CCL4  -0.0812 
2374 CL      10.3616    -4.1568    -8.8268 Cl    443 CCL4  -0.0812 
2375 CL      10.6276     1.5408    -6.7703 Cl    444 CCL4  -0.0812 
2376 C       11.1728    -0.1503    -7.0621 C.3   444 CCL4   0.3246 
2377 CL      10.2127    -1.2491    -6.0848 Cl    444 CCL4  -0.0812 
2378 CL      12.8376    -0.4254    -6.6615 Cl    444 CCL4  -0.0812 
2379 CL      10.9814    -0.5829    -8.7403 Cl    444 CCL4  -0.0812 
2380 CL      11.1877    -8.6805   -15.7958 Cl    445 CCL4  -0.0812 
2381 C       11.4484    -6.9679   -15.8909 C.3   445 CCL4   0.3246 
2382 CL      10.3264    -6.1132   -16.8550 Cl    445 CCL4  -0.0812 
2383 CL      13.1719    -6.7703   -16.6622 Cl    445 CCL4  -0.0812 
2384 CL      11.6873    -6.2860   -14.2323 Cl    445 CCL4  -0.0812 
2385 CL      12.5125    -9.1484    -1.4025 Cl    446 CCL4  -0.0812 
2386 C       10.9885    -9.5579    -2.1818 C.3   446 CCL4   0.3246 
2387 CL       9.5951    -8.8132    -1.4593 Cl    446 CCL4  -0.0812 
2388 CL      10.8300   -11.3395    -2.2065 Cl    446 CCL4  -0.0812 
2389 CL      11.0714    -9.0580    -3.8423 Cl    446 CCL4  -0.0812 
2390 CL      12.4045    -3.9363    -4.9765 Cl    447 CCL4  -0.0812 
2391 C       12.0459    -5.7206    -4.9611 C.3   447 CCL4   0.3246 
2392 CL      10.8988    -6.2942    -6.1402 Cl    447 CCL4  -0.0812 
2393 CL      11.2824    -5.9544    -3.3094 Cl    447 CCL4  -0.0812 
2394 CL      13.5335    -6.7290    -5.0183 Cl    447 CCL4  -0.0812 
2395 CL       8.9448    -1.4181    -2.5558 Cl    448 CCL4  -0.0812 
2396 C        9.4837    -2.4908    -1.1515 C.3   448 CCL4   0.3246 
2397 CL       8.6525    -4.0338    -1.2359 Cl    448 CCL4  -0.0812 
2398 CL       8.9991    -1.6797     0.3241 Cl    448 CCL4  -0.0812 
2399 CL      11.3001    -2.7115    -1.3656 Cl    448 CCL4  -0.0812 
2400 CL      14.3515    -6.2714    -1.4264 Cl    449 CCL4  -0.0812 
2401 C       13.9026    -5.7818     0.2213 C.3   449 CCL4   0.3246 
2402 CL      14.5795    -7.1972     1.1556 Cl    449 CCL4  -0.0812 
2403 CL      12.1244    -5.7148     0.4442 Cl    449 CCL4  -0.0812 
2404 CL      14.5804    -4.2202     0.6680 Cl    449 CCL4  -0.0812 
2405 CL       7.4283    -6.8417    -4.1806 Cl    450 CCL4  -0.0812 
2406 C        7.3374    -5.9790    -5.7379 C.3   450 CCL4   0.3246 
2407 CL       8.1657    -4.3381    -5.7418 Cl    450 CCL4  -0.0812 
2408 CL       5.6103    -5.4639    -5.9122 Cl    450 CCL4  -0.0812 
2409 CL       7.9348    -6.9449    -7.1385 Cl    450 CCL4  -0.0812 
2410 CL       8.4691   -10.3231    -5.4107 Cl    451 CCL4  -0.0812 
2411 C        9.5529   -10.9212    -6.6798 C.3   451 CCL4   0.3246 
2412 CL       8.6066   -12.2528    -7.3839 Cl    451 CCL4  -0.0812 
2413 CL      10.8850   -11.7732    -5.8664 Cl    451 CCL4  -0.0812 
2414 CL      10.0607    -9.6699    -7.8475 Cl    451 CCL4  -0.0812 
2415 CL       8.8076   -16.4034    -2.4902 Cl    452 CCL4  -0.0812 
2416 C        8.3795   -15.4019    -1.1162 C.3   452 CCL4   0.3246 
2417 CL       8.0076   -13.7240    -1.5482 Cl    452 CCL4  -0.0812 
2418 CL       6.8140   -15.9724    -0.4115 Cl    452 CCL4  -0.0812 
2419 CL       9.6223   -15.5138     0.1626 Cl    452 CCL4  -0.0812 
2420 CL       7.2332   -10.0394    10.9494 Cl    453 CCL4  -0.0812 
2421 C        6.9989    -8.3980    11.6135 C.3   453 CCL4   0.3246 
2422 CL       5.5041    -7.7710    10.9053 Cl    453 CCL4  -0.0812 
2423 CL       8.4219    -7.3414    11.3911 Cl    453 CCL4  -0.0812 
2424 CL       6.7872    -8.6087    13.3769 Cl    453 CCL4  -0.0812 
2425 CL      11.0432    -9.6871    12.8431 Cl    454 CCL4  -0.0812 
2426 C       11.3294   -11.4421    12.9702 C.3   454 CCL4   0.3246 
2427 CL      11.0846   -11.9572    14.6610 Cl    454 CCL4  -0.0812 
2428 CL      12.8685   -12.0415    12.4068 Cl    454 CCL4  -0.0812 
2429 CL      10.0754   -12.2553    12.0024 Cl    454 CCL4  -0.0812 
2430 CL      12.4925    -0.8051    13.0254 Cl    455 CCL4  -0.0812 
2431 C       13.0267     0.7563    12.3400 C.3   455 CCL4   0.3246 
2432 CL      12.0986     2.1713    12.8738 Cl    455 CCL4  -0.0812 
2433 CL      13.1734     0.7666    10.5925 Cl    455 CCL4  -0.0812 
2434 CL      14.6602     1.0221    12.9972 Cl    455 CCL4  -0.0812 
2435 CL      16.4889   -12.6048    12.6758 Cl    456 CCL4  -0.0812 
2436 C       15.9804   -14.3321    12.8919 C.3   456 CCL4   0.3246 
2437 CL      17.4075   -15.2755    13.3561 Cl    456 CCL4  -0.0812 
2438 CL      15.3193   -15.0148    11.4395 Cl    456 CCL4  -0.0812 
2439 CL      14.8848   -14.4474    14.3429 Cl    456 CCL4  -0.0812 
2440 CL      11.3833    23.4837     8.7792 Cl    457 CCL4  -0.0812 
2441 C        9.6019    22.9578     8.9285 C.3   457 CCL4   0.3246 
2442 CL       9.5865    21.2647     9.1348 Cl    457 CCL4  -0.0812 
2443 CL       8.6326    23.3895     7.4407 Cl    457 CCL4  -0.0812 
2444 CL       8.9405    23.8876    10.3513 Cl    457 CCL4  -0.0812 
2445 CL      15.5726    23.3947    16.6830 Cl    458 CCL4  -0.0812 
2446 C       15.0717    21.7589    17.0384 C.3   458 CCL4   0.3246 
2447 CL      16.3042    20.6284    16.4952 Cl    458 CCL4  -0.0812 
2448 CL      13.6343    21.3497    16.0842 Cl    458 CCL4  -0.0812 
2449 CL      14.7422    21.5960    18.7248 Cl    458 CCL4  -0.0812 
2450 CL      11.8955   -19.8480    12.6211 Cl    459 CCL4  -0.0812 
2451 C       11.1515   -19.3574    14.1724 C.3   459 CCL4   0.3246 
2452 CL      12.3755   -18.8687    15.2451 Cl    459 CCL4  -0.0812 
2453 CL      10.2746   -20.7710    14.7883 Cl    459 CCL4  -0.0812 
2454 CL       9.9610   -18.0147    13.8675 Cl    459 CCL4  -0.0812 
2455 CL      11.9361    -0.4140     7.7292 Cl    460 CCL4  -0.0812 
2456 C       13.4577    -0.1249     6.8713 C.3   460 CCL4   0.3246 
2457 CL      13.7940     1.6470     7.3104 Cl    460 CCL4  -0.0812 
2458 CL      13.2233    -0.1927     5.1209 Cl    460 CCL4  -0.0812 
2459 CL      14.8180    -1.2109     7.2544 Cl    460 CCL4  -0.0812 
2460 CL      11.3186   -16.9064     3.7092 Cl    461 CCL4  -0.0812 
2461 C       11.7902   -17.4997     5.3197 C.3   461 CCL4   0.3246 
2462 CL      10.6101   -16.9172     6.4788 Cl    461 CCL4  -0.0812 
2463 CL      13.3273   -16.7564     5.7720 Cl    461 CCL4  -0.0812 
2464 CL      11.9952   -19.2519     5.2452 Cl    461 CCL4  -0.0812 
2465 CL      14.9172   -10.5171     6.9424 Cl    462 CCL4  -0.0812 
2466 C       14.5311   -11.9723     7.9904 C.3   462 CCL4   0.3246 
2467 CL      12.8275   -11.9470     8.6010 Cl    462 CCL4  -0.0812 
2468 CL      15.6575   -12.1168     9.3890 Cl    462 CCL4  -0.0812 
2469 CL      14.9144   -13.3757     6.9615 Cl    462 CCL4  -0.0812 
2470 CL       7.7480   -13.9918     6.1293 Cl    463 CCL4  -0.0812 
2471 C        8.9933   -13.0581     6.9653 C.3   463 CCL4   0.3246 
2472 CL       8.8032   -13.5133     8.7626 Cl    463 CCL4  -0.0812 
2473 CL       8.6193   -11.2636     7.0694 Cl    463 CCL4  -0.0812 
2474 CL      10.5044   -13.5643     6.3754 Cl    463 CCL4  -0.0812 
2475 CL      12.7683   -17.5863     9.8589 Cl    464 CCL4  -0.0812 
2476 C       11.7542   -16.3469    10.5828 C.3   464 CCL4   0.3246 
2477 CL      12.0835   -14.8219     9.7392 Cl    464 CCL4  -0.0812 
2478 CL      12.3751   -16.1030    12.3009 Cl    464 CCL4  -0.0812 
2479 CL      10.0787   -16.8734    10.5555 Cl    464 CCL4  -0.0812 
2480 CL       8.8807     1.5193    12.2277 Cl    465 CCL4  -0.0812 
2481 C        7.5238     0.7565    13.1171 C.3   465 CCL4   0.3246 
2482 CL       6.0049     1.3391    12.3548 Cl    465 CCL4  -0.0812 
2483 CL       7.5328     1.3478    14.7676 Cl    465 CCL4  -0.0812 
2484 CL       7.7921    -0.9809    13.0219 Cl    465 CCL4  -0.0812 
2485 CL      10.5314     2.1053     5.4508 Cl    466 CCL4  -0.0812 
2486 C        9.8040     1.3379     3.9492 C.3   466 CCL4   0.3246 
2487 CL       8.5008     2.3473     3.2602 Cl    466 CCL4  -0.0812 
2488 CL       9.6190    -0.3972     4.1298 Cl    466 CCL4  -0.0812 
2489 CL      11.2763     1.4572     2.8061 Cl    466 CCL4  -0.0812 
2490 CL      11.3805   -18.1147    21.2432 Cl    467 CCL4  -0.0812 
2491 C       11.8527   -19.5807    20.2534 C.3   467 CCL4   0.3246 
2492 CL      10.3087   -20.0974    19.5006 Cl    467 CCL4  -0.0812 
2493 CL      12.6303   -20.9009    21.2324 Cl    467 CCL4  -0.0812 
2494 CL      12.9321   -18.9957    18.9962 Cl    467 CCL4  -0.0812 
2495 CL      16.0625   -11.2334    16.2211 Cl    468 CCL4  -0.0812 
2496 C       14.4885   -10.9557    17.0907 C.3   468 CCL4   0.3246 
2497 CL      14.7617   -10.0077    18.5230 Cl    468 CCL4  -0.0812 
2498 CL      13.7872   -12.5730    17.5362 Cl    468 CCL4  -0.0812 
2499 CL      13.4586   -10.0737    16.0389 Cl    468 CCL4  -0.0812 
2500 CL      10.4579   -15.0850    16.2428 Cl    469 CCL4  -0.0812 
2501 C        9.3628   -16.0473    17.1778 C.3   469 CCL4   0.3246 
2502 CL       7.6763   -15.7547    16.7123 Cl    469 CCL4  -0.0812 
2503 CL       9.4394   -15.4864    18.8126 Cl    469 CCL4  -0.0812 
2504 CL       9.7804   -17.7601    17.0675 Cl    469 CCL4  -0.0812 
2505 CL      16.1052    -6.8711    10.6550 Cl    470 CCL4  -0.0812 
2506 C       15.4149    -8.0012    11.8514 C.3   470 CCL4   0.3246 
2507 CL      14.2788    -9.0966    10.8525 Cl    470 CCL4  -0.0812 
2508 CL      14.4621    -6.9524    13.0023 Cl    470 CCL4  -0.0812 
2509 CL      16.5837    -9.0703    12.6157 Cl    470 CCL4  -0.0812 
2510 CL      15.4089    -2.8688    18.0365 Cl    471 CCL4  -0.0812 
2511 C       15.0208    -3.1843    16.2796 C.3   471 CCL4   0.3246 
2512 CL      13.8218    -4.6057    16.2629 Cl    471 CCL4  -0.0812 
2513 CL      16.5640    -3.7715    15.5167 Cl    471 CCL4  -0.0812 
2514 CL      14.3768    -1.8030    15.5299 Cl    471 CCL4  -0.0812 
2515 CL      11.4952    -4.1256    13.4524 Cl    472 CCL4  -0.0812 
2516 C       10.3705    -4.9166    14.5488 C.3   472 CCL4   0.3246 
2517 CL      10.7696    -6.5979    14.8050 Cl    472 CCL4  -0.0812 
2518 CL       8.7263    -4.7942    13.8023 Cl    472 CCL4  -0.0812 
2519 CL      10.3616    -4.1568    16.1732 Cl    472 CCL4  -0.0812 
2520 CL      16.2226    -3.8934     9.0898 Cl    473 CCL4  -0.0812 
2521 C       15.2311    -3.0632    10.3687 C.3   473 CCL4   0.3246 
2522 CL      15.3089    -3.7412    11.9663 Cl    473 CCL4  -0.0812 
2523 CL      13.5053    -2.9678     9.9859 Cl    473 CCL4  -0.0812 
2524 CL      15.8412    -1.3676    10.4033 Cl    473 CCL4  -0.0812 
2525 CL      17.6732    -5.4408     3.6776 Cl    474 CCL4  -0.0812 
2526 C       17.0360    -4.3523     4.9663 C.3   474 CCL4   0.3246 
2527 CL      15.7136    -5.0741     5.9489 Cl    474 CCL4  -0.0812 
2528 CL      16.4901    -2.9014     4.1391 Cl    474 CCL4  -0.0812 
2529 CL      18.3922    -3.8211     5.9182 Cl    474 CCL4  -0.0812 
2530 CL      11.3901   -10.6380     4.9609 Cl    475 CCL4  -0.0812 
2531 C       11.9023    -9.1862     4.1991 C.3   475 CCL4   0.3246 
2532 CL      11.7020    -7.8427     5.2807 Cl    475 CCL4  -0.0812 
2533 CL      11.0569    -8.7762     2.7249 Cl    475 CCL4  -0.0812 
2534 CL      13.6888    -9.2211     3.8836 Cl    475 CCL4  -0.0812 
2535 CL      11.8584    -3.3708     5.7073 Cl    476 CCL4  -0.0812 
2536 C       11.8040    -3.9471     4.0631 C.3   476 CCL4   0.3246 
2537 CL      11.9106    -2.6372     2.8714 Cl    476 CCL4  -0.0812 
2538 CL      10.2619    -4.6976     3.9196 Cl    476 CCL4  -0.0812 
2539 CL      13.1966    -4.9789     3.7291 Cl    476 CCL4  -0.0812 
2540 CL       8.7911    -2.1376     7.4515 Cl    477 CCL4  -0.0812 
2541 C        8.3886    -2.2651     9.2604 C.3   477 CCL4   0.3246 
2542 CL       7.5783    -3.8788     9.4469 Cl    477 CCL4  -0.0812 
2543 CL       7.0646    -1.1055     9.5988 Cl    477 CCL4  -0.0812 
2544 CL       9.8271    -2.2522    10.2173 Cl    477 CCL4  -0.0812 
2545 CL      11.1877    -8.6805     9.2042 Cl    478 CCL4  -0.0812 
2546 C       11.4484    -6.9679     9.1091 C.3   478 CCL4   0.3246 
2547 CL      10.3264    -6.1132     8.1450 Cl    478 CCL4  -0.0812 
2548 CL      13.1719    -6.7703     8.3378 Cl    478 CCL4  -0.0812 
2549 CL      11.6873    -6.2860    10.7677 Cl    478 CCL4  -0.0812 
2550 CL       7.3257    -7.9484     7.6360 Cl    479 CCL4  -0.0812 
2551 C        6.9944    -7.1799     6.0628 C.3   479 CCL4   0.3246 
2552 CL       5.3553    -7.3806     5.5307 Cl    479 CCL4  -0.0812 
2553 CL       7.9956    -7.8440     4.8097 Cl    479 CCL4  -0.0812 
2554 CL       7.2195    -5.4526     6.2147 Cl    479 CCL4  -0.0812 
2555 CL       7.4283    -6.8417    20.8194 Cl    480 CCL4  -0.0812 
2556 C        7.3374    -5.9790    19.2621 C.3   480 CCL4   0.3246 
2557 CL       8.1657    -4.3381    19.2582 Cl    480 CCL4  -0.0812 
2558 CL       5.6103    -5.4639    19.0878 Cl    480 CCL4  -0.0812 
2559 CL       7.9348    -6.9449    17.8615 Cl    480 CCL4  -0.0812 
2560 CL       8.4691   -10.3231    19.5893 Cl    481 CCL4  -0.0812 
2561 C        9.5529   -10.9212    18.3202 C.3   481 CCL4   0.3246 
2562 CL       8.6066   -12.2528    17.6161 Cl    481 CCL4  -0.0812 
2563 CL      10.8850   -11.7732    19.1336 Cl    481 CCL4  -0.0812 
2564 CL      10.0607    -9.6699    17.1525 Cl    481 CCL4  -0.0812 
2565 CL       7.2332    14.9606   -14.0506 Cl    482 CCL4  -0.0812 
2566 C        6.9989    16.6020   -13.3865 C.3   482 CCL4   0.3246 
2567 CL       5.5041    17.2290   -14.0947 Cl    482 CCL4  -0.0812 
2568 CL       8.4219    17.6586   -13.6089 Cl    482 CCL4  -0.0812 
2569 CL       6.7872    16.3913   -11.6231 Cl    482 CCL4  -0.0812 
2570 CL      16.7748     3.8368   -11.4038 Cl    483 CCL4  -0.0812 
2571 C       16.1770     4.8547   -12.7990 C.3   483 CCL4   0.3246 
2572 CL      14.9385     4.0759   -13.8815 Cl    483 CCL4  -0.0812 
2573 CL      17.5546     5.4155   -13.7980 Cl    483 CCL4  -0.0812 
2574 CL      15.4461     6.3934   -12.0585 Cl    483 CCL4  -0.0812 
2575 CL      11.0432    15.3129   -12.1569 Cl    484 CCL4  -0.0812 
2576 C       11.3294    13.5579   -12.0298 C.3   484 CCL4   0.3246 
2577 CL      11.0846    13.0428   -10.3390 Cl    484 CCL4  -0.0812 
2578 CL      12.8685    12.9585   -12.5932 Cl    484 CCL4  -0.0812 
2579 CL      10.0754    12.7447   -12.9976 Cl    484 CCL4  -0.0812 
2580 CL      14.8150     2.4055     2.3878 Cl    485 CCL4  -0.0812 
2581 C       15.9975     2.8137     3.6802 C.3   485 CCL4   0.3246 
2582 CL      16.4657     1.2629     4.3292 Cl    485 CCL4  -0.0812 
2583 CL      15.0415     3.6903     4.9013 Cl    485 CCL4  -0.0812 
2584 CL      17.3515     3.7114     3.1165 Cl    485 CCL4  -0.0812 
2585 CL      18.1479     7.4650     2.8566 Cl    486 CCL4  -0.0812 
2586 C       16.4761     8.0623     2.7297 C.3   486 CCL4   0.3246 
2587 CL      16.1202     8.3143     0.9360 Cl    486 CCL4  -0.0812 
2588 CL      16.1466     9.5858     3.5694 Cl    486 CCL4  -0.0812 
2589 CL      15.2422     6.8393     3.1545 Cl    486 CCL4  -0.0812 
2590 CL      16.4889    12.3952   -12.3242 Cl    487 CCL4  -0.0812 
2591 C       15.9804    10.6679   -12.1081 C.3   487 CCL4   0.3246 
2592 CL      17.4075     9.7245   -11.6439 Cl    487 CCL4  -0.0812 
2593 CL      15.3193     9.9852   -13.5605 Cl    487 CCL4  -0.0812 
2594 CL      14.8848    10.5526   -10.6571 Cl    487 CCL4  -0.0812 
2595 CL      11.3833     4.5176   -16.2208 Cl    488 CCL4  -0.0812 
2596 C        9.6019     3.9917   -16.0715 C.3   488 CCL4   0.3246 
2597 CL       9.5865     2.2986   -15.8652 Cl    488 CCL4  -0.0812 
2598 CL       8.6326     4.4234   -17.5593 Cl    488 CCL4  -0.0812 
2599 CL       8.9405     4.9215   -14.6487 Cl    488 CCL4  -0.0812 
2600 CL      15.5726     4.4286    -8.3170 Cl    489 CCL4  -0.0812 
2601 C       15.0717     2.7928    -7.9616 C.3   489 CCL4   0.3246 
2602 CL      16.3042     1.6623    -8.5048 Cl    489 CCL4  -0.0812 
2603 CL      13.6343     2.3835    -8.9158 Cl    489 CCL4  -0.0812 
2604 CL      14.7422     2.6299    -6.2752 Cl    489 CCL4  -0.0812 
2605 CL      11.8955     5.1520   -12.3789 Cl    490 CCL4  -0.0812 
2606 C       11.1515     5.6426   -10.8276 C.3   490 CCL4   0.3246 
2607 CL      12.3755     6.1313    -9.7549 Cl    490 CCL4  -0.0812 
2608 CL      10.2746     4.2290   -10.2117 Cl    490 CCL4  -0.0812 
2609 CL       9.9610     6.9853   -11.1325 Cl    490 CCL4  -0.0812 
2610 CL      13.9433    12.5766     3.2574 Cl    491 CCL4  -0.0812 
2611 C       13.6373    12.7268     1.5521 C.3   491 CCL4   0.3246 
2612 CL      14.7076    13.8950     0.7691 Cl    491 CCL4  -0.0812 
2613 CL      11.9669    13.1997     1.2042 Cl    491 CCL4  -0.0812 
2614 CL      13.8019    11.1046     0.7360 Cl    491 CCL4  -0.0812 
2615 CL       6.8419    14.1669     3.6461 Cl    492 CCL4  -0.0812 
2616 C        7.5441    13.1691     2.2901 C.3   492 CCL4   0.3246 
2617 CL       8.9279    12.3331     2.9645 Cl    492 CCL4  -0.0812 
2618 CL       8.0990    14.3462     1.1199 Cl    492 CCL4  -0.0812 
2619 CL       6.4278    12.0013     1.6788 Cl    492 CCL4  -0.0812 
2620 CL      12.7683     7.4137   -15.1411 Cl    493 CCL4  -0.0812 
2621 C       11.7542     8.6531   -14.4172 C.3   493 CCL4   0.3246 
2622 CL      12.0835    10.1781   -15.2608 Cl    493 CCL4  -0.0812 
2623 CL      12.3751     8.8970   -12.6991 Cl    493 CCL4  -0.0812 
2624 CL      10.0787     8.1266   -14.4445 Cl    493 CCL4  -0.0812 
2625 CL      11.3805     6.8853    -3.7568 Cl    494 CCL4  -0.0812 
2626 C       11.8527     5.4193    -4.7466 C.3   494 CCL4   0.3246 
2627 CL      10.3087     4.9026    -5.4994 Cl    494 CCL4  -0.0812 
2628 CL      12.6303     4.0991    -3.7676 Cl    494 CCL4  -0.0812 
2629 CL      12.9321     6.0043    -6.0038 Cl    494 CCL4  -0.0812 
2630 CL       7.2306     4.0601    -1.4736 Cl    495 CCL4  -0.0812 
2631 C        7.9977     2.4805    -1.8976 C.3   495 CCL4   0.3246 
2632 CL       6.5899     1.4341    -2.2444 Cl    495 CCL4  -0.0812 
2633 CL       8.8280     1.9964    -0.4167 Cl    495 CCL4  -0.0812 
2634 CL       9.1575     2.4146    -3.2185 Cl    495 CCL4  -0.0812 
2635 CL      16.0625    13.7666    -8.7789 Cl    496 CCL4  -0.0812 
2636 C       14.4885    14.0443    -7.9093 C.3   496 CCL4   0.3246 
2637 CL      14.7617    14.9923    -6.4770 Cl    496 CCL4  -0.0812 
2638 CL      13.7872    12.4270    -7.4638 Cl    496 CCL4  -0.0812 
2639 CL      13.4586    14.9263    -8.9611 Cl    496 CCL4  -0.0812 
2640 CL      17.8880     7.2702    -2.8056 Cl    497 CCL4  -0.0812 
2641 C       16.8576     6.2887    -3.7676 C.3   497 CCL4   0.3246 
2642 CL      16.3790     7.1598    -5.2397 Cl    497 CCL4  -0.0812 
2643 CL      15.4472     5.9319    -2.7978 Cl    497 CCL4  -0.0812 
2644 CL      17.6569     4.8056    -4.1815 Cl    497 CCL4  -0.0812 
2645 CL      12.1560    10.1925    -2.0321 Cl    498 CCL4  -0.0812 
2646 C       13.6410    10.4799    -2.9753 C.3   498 CCL4   0.3246 
2647 CL      13.2700    10.1457    -4.6607 Cl    498 CCL4  -0.0812 
2648 CL      14.8435     9.4130    -2.3256 Cl    498 CCL4  -0.0812 
2649 CL      14.0671    12.2471    -2.8693 Cl    498 CCL4  -0.0812 
2650 CL      10.4579     9.9150    -8.7572 Cl    499 CCL4  -0.0812 
2651 C        9.3628     8.9527    -7.8222 C.3   499 CCL4   0.3246 
2652 CL       7.6763     9.2453    -8.2877 Cl    499 CCL4  -0.0812 
2653 CL       9.4394     9.5136    -6.1874 Cl    499 CCL4  -0.0812 
2654 CL       9.7804     7.2399    -7.9325 Cl    499 CCL4  -0.0812 
2655 CL      13.6512     4.5336    -0.4189 Cl    500 CCL4  -0.0812 
2656 C       12.3693     5.6222     0.2098 C.3   500 CCL4   0.3246 
2657 CL      12.1423     5.0881     1.9201 Cl    500 CCL4  -0.0812 
2658 CL      10.9215     5.4976    -0.7593 Cl    500 CCL4  -0.0812 
2659 CL      12.8940     7.3252     0.1840 Cl    500 CCL4  -0.0812 
2660 CL       5.8684     5.9712     3.0492 Cl    501 CCL4  -0.0812 
2661 C        7.5143     6.4234     3.1748 C.3   501 CCL4   0.3246 
2662 CL       7.8183     8.1747     3.3970 Cl    501 CCL4  -0.0812 
2663 CL       8.3594     5.8885     1.6987 Cl    501 CCL4  -0.0812 
2664 CL       8.2697     5.5142     4.4221 Cl    501 CCL4  -0.0812 
2665 CL      16.1052    18.1289   -14.3450 Cl    502 CCL4  -0.0812 
2666 C       15.4149    16.9988   -13.1486 C.3   502 CCL4   0.3246 
2667 CL      14.2788    15.9034   -14.1475 Cl    502 CCL4  -0.0812 
2668 CL      14.4621    18.0476   -11.9977 Cl    502 CCL4  -0.0812 
2669 CL      16.5837    15.9297   -12.3843 Cl    502 CCL4  -0.0812 
2670 CL      11.4952    20.8744   -11.5476 Cl    503 CCL4  -0.0812 
2671 C       10.3705    20.0834   -10.4512 C.3   503 CCL4   0.3246 
2672 CL      10.7696    18.4021   -10.1950 Cl    503 CCL4  -0.0812 
2673 CL       8.7263    20.2058   -11.1977 Cl    503 CCL4  -0.0812 
2674 CL      10.3616    20.8432    -8.8268 Cl    503 CCL4  -0.0812 
2675 CL      11.1877    16.3195   -15.7958 Cl    504 CCL4  -0.0812 
2676 C       11.4484    18.0321   -15.8909 C.3   504 CCL4   0.3246 
2677 CL      10.3264    18.8868   -16.8550 Cl    504 CCL4  -0.0812 
2678 CL      13.1719    18.2297   -16.6622 Cl    504 CCL4  -0.0812 
2679 CL      11.6873    18.7140   -14.2323 Cl    504 CCL4  -0.0812 
2680 CL      12.5125    15.8516    -1.4025 Cl    505 CCL4  -0.0812 
2681 C       10.9885    15.4421    -2.1818 C.3   505 CCL4   0.3246 
2682 CL       9.5951    16.1868    -1.4593 Cl    505 CCL4  -0.0812 
2683 CL      10.8300    13.6605    -2.2065 Cl    505 CCL4  -0.0812 
2684 CL      11.0714    15.9420    -3.8423 Cl    505 CCL4  -0.0812 
2685 CL      14.3515    18.7286    -1.4264 Cl    506 CCL4  -0.0812 
2686 C       13.9026    19.2182     0.2213 C.3   506 CCL4   0.3246 
2687 CL      14.5795    17.8028     1.1556 Cl    506 CCL4  -0.0812 
2688 CL      12.1244    19.2852     0.4442 Cl    506 CCL4  -0.0812 
2689 CL      14.5804    20.7798     0.6680 Cl    506 CCL4  -0.0812 
2690 CL       7.4283    18.1583    -4.1806 Cl    507 CCL4  -0.0812 
2691 C        7.3374    19.0210    -5.7379 C.3   507 CCL4   0.3246 
2692 CL       8.1657    20.6619    -5.7418 Cl    507 CCL4  -0.0812 
2693 CL       5.6103    19.5361    -5.9122 Cl    507 CCL4  -0.0812 
2694 CL       7.9348    18.0551    -7.1385 Cl    507 CCL4  -0.0812 
2695 CL       8.4691    14.6769    -5.4107 Cl    508 CCL4  -0.0812 
2696 C        9.5529    14.0788    -6.6798 C.3   508 CCL4   0.3246 
2697 CL       8.6066    12.7472    -7.3839 Cl    508 CCL4  -0.0812 
2698 CL      10.8850    13.2268    -5.8664 Cl    508 CCL4  -0.0812 
2699 CL      10.0607    15.3301    -7.8475 Cl    508 CCL4  -0.0812 
2700 CL       8.8076     8.5966    -2.4902 Cl    509 CCL4  -0.0812 
2701 C        8.3795     9.5981    -1.1162 C.3   509 CCL4   0.3246 
2702 CL       8.0076    11.2760    -1.5482 Cl    509 CCL4  -0.0812 
2703 CL       6.8140     9.0276    -0.4115 Cl    509 CCL4  -0.0812 
2704 CL       9.6223     9.4862     0.1626 Cl    509 CCL4  -0.0812 
2705 CL       7.2332    14.9606    10.9494 Cl    510 CCL4  -0.0812 
2706 C        6.9989    16.6020    11.6135 C.3   510 CCL4   0.3246 
2707 CL       5.5041    17.2290    10.9053 Cl    510 CCL4  -0.0812 
2708 CL       8.4219    17.6586    11.3911 Cl    510 CCL4  -0.0812 
2709 CL       6.7872    16.3913    13.3769 Cl    510 CCL4  -0.0812 
2710 CL      16.7748     3.8368    13.5962 Cl    511 CCL4  -0.0812 
2711 C       16.1770     4.8547    12.2010 C.3   511 CCL4   0.3246 
2712 CL      14.9385     4.0759    11.1185 Cl    511 CCL4  -0.0812 
2713 CL      17.5546     5.4155    11.2020 Cl    511 CCL4  -0.0812 
2714 CL      15.4461     6.3934    12.9415 Cl    511 CCL4  -0.0812 
2715 CL      11.0432    15.3129    12.8431 Cl    512 CCL4  -0.0812 
2716 C       11.3294    13.5579    12.9702 C.3   512 CCL4   0.3246 
2717 CL      11.0846    13.0428    14.6610 Cl    512 CCL4  -0.0812 
2718 CL      12.8685    12.9585    12.4068 Cl    512 CCL4  -0.0812 
2719 CL      10.0754    12.7447    12.0024 Cl    512 CCL4  -0.0812 
2720 CL      16.4889    12.3952    12.6758 Cl    513 CCL4  -0.0812 
2721 C       15.9804    10.6679    12.8919 C.3   513 CCL4   0.3246 
2722 CL      17.4075     9.7245    13.3561 Cl    513 CCL4  -0.0812 
2723 CL      15.3193     9.9852    11.4395 Cl    513 CCL4  -0.0812 
2724 CL      14.8848    10.5526    14.3429 Cl    513 CCL4  -0.0812 
2725 CL      11.3833     4.5176     8.7792 Cl    514 CCL4  -0.0812 
2726 C        9.6019     3.9917     8.9285 C.3   514 CCL4   0.3246 
2727 CL       9.5865     2.2986     9.1348 Cl    514 CCL4  -0.0812 
2728 CL       8.6326     4.4234     7.4407 Cl    514 CCL4  -0.0812 
2729 CL       8.9405     4.9215    10.3513 Cl    514 CCL4  -0.0812 
2730 CL      15.5726     4.4286    16.6830 Cl    515 CCL4  -0.0812 
2731 C       15.0717     2.7928    17.0384 C.3   515 CCL4   0.3246 
2732 CL      16.3042     1.6623    16.4952 Cl    515 CCL4  -0.0812 
2733 CL      13.6343     2.3835    16.0842 Cl    515 CCL4  -0.0812 
2734 CL      14.7422     2.6299    18.7248 Cl    515 CCL4  -0.0812 
2735 CL      11.8955     5.1520    12.6211 Cl    516 CCL4  -0.0812 
2736 C       11.1515     5.6426    14.1724 C.3   516 CCL4   0.3246 
2737 CL      12.3755     6.1313    15.2451 Cl    516 CCL4  -0.0812 
2738 CL      10.2746     4.2290    14.7883 Cl    516 CCL4  -0.0812 
2739 CL       9.9610     6.9853    13.8675 Cl    516 CCL4  -0.0812 
2740 CL      11.3186     8.0936     3.7092 Cl    517 CCL4  -0.0812 
2741 C       11.7902     7.5003     5.3197 C.3   517 CCL4   0.3246 
2742 CL      10.6101     8.0828     6.4788 Cl    517 CCL4  -0.0812 
2743 CL      13.3273     8.2436     5.7720 Cl    517 CCL4  -0.0812 
2744 CL      11.9952     5.7481     5.2452 Cl    517 CCL4  -0.0812 
2745 CL      14.9172    14.4829     6.9424 Cl    518 CCL4  -0.0812 
2746 C       14.5311    13.0277     7.9904 C.3   518 CCL4   0.3246 
2747 CL      12.8275    13.0530     8.6010 Cl    518 CCL4  -0.0812 
2748 CL      15.6575    12.8832     9.3890 Cl    518 CCL4  -0.0812 
2749 CL      14.9144    11.6243     6.9615 Cl    518 CCL4  -0.0812 
2750 CL       7.7480    11.0082     6.1293 Cl    519 CCL4  -0.0812 
2751 C        8.9933    11.9419     6.9653 C.3   519 CCL4   0.3246 
2752 CL       8.8032    11.4867     8.7626 Cl    519 CCL4  -0.0812 
2753 CL       8.6193    13.7364     7.0694 Cl    519 CCL4  -0.0812 
2754 CL      10.5044    11.4357     6.3754 Cl    519 CCL4  -0.0812 
2755 CL      12.7683     7.4137     9.8589 Cl    520 CCL4  -0.0812 
2756 C       11.7542     8.6531    10.5828 C.3   520 CCL4   0.3246 
2757 CL      12.0835    10.1781     9.7392 Cl    520 CCL4  -0.0812 
2758 CL      12.3751     8.8970    12.3009 Cl    520 CCL4  -0.0812 
2759 CL      10.0787     8.1266    10.5555 Cl    520 CCL4  -0.0812 
2760 CL      11.3805     6.8853    21.2432 Cl    521 CCL4  -0.0812 
2761 C       11.8527     5.4193    20.2534 C.3   521 CCL4   0.3246 
2762 CL      10.3087     4.9026    19.5006 Cl    521 CCL4  -0.0812 
2763 CL      12.6303     4.0991    21.2324 Cl    521 CCL4  -0.0812 
2764 CL      12.9321     6.0043    18.9962 Cl    521 CCL4  -0.0812 
2765 CL      16.0625    13.7666    16.2211 Cl    522 CCL4  -0.0812 
2766 C       14.4885    14.0443    17.0907 C.3   522 CCL4   0.3246 
2767 CL      14.7617    14.9923    18.5230 Cl    522 CCL4  -0.0812 
2768 CL      13.7872    12.4270    17.5362 Cl    522 CCL4  -0.0812 
2769 CL      13.4586    14.9263    16.0389 Cl    522 CCL4  -0.0812 
2770 CL      10.4579     9.9150    16.2428 Cl    523 CCL4  -0.0812 
2771 C        9.3628     8.9527    17.1778 C.3   523 CCL4   0.3246 
2772 CL       7.6763     9.2453    16.7123 Cl    523 CCL4  -0.0812 
2773 CL       9.4394     9.5136    18.8126 Cl    523 CCL4  -0.0812 
2774 CL       9.7804     7.2399    17.0675 Cl    523 CCL4  -0.0812 
2775 CL      16.1052    18.1289    10.6550 Cl    524 CCL4  -0.0812 
2776 C       15.4149    16.9988    11.8514 C.3   524 CCL4   0.3246 
2777 CL      14.2788    15.9034    10.8525 Cl    524 CCL4  -0.0812 
2778 CL      14.4621    18.0476    13.0023 Cl    524 CCL4  -0.0812 
2779 CL      16.5837    15.9297    12.6157 Cl    524 CCL4  -0.0812 
2780 CL      11.4952    20.8744    13.4524 Cl    525 CCL4  -0.0812 
2781 C       10.3705    20.0834    14.5488 C.3   525 CCL4   0.3246 
2782 CL      10.7696    18.4021    14.8050 Cl    525 CCL4  -0.0812 
2783 CL       8.7263    20.2058    13.8023 Cl    525 CCL4  -0.0812 
2784 CL      10.3616    20.8432    16.1732 Cl    525 CCL4  -0.0812 
2785 CL      17.6732    19.5592     3.6776 Cl    526 CCL4  -0.0812 
2786 C       17.0360    20.6477     4.9663 C.3   526 CCL4   0.3246 
2787 CL      15.7136    19.9259     5.9489 Cl    526 CCL4  -0.0812 
2788 CL      16.4901    22.0986     4.1391 Cl    526 CCL4  -0.0812 
2789 CL      18.3922    21.1789     5.9182 Cl    526 CCL4  -0.0812 
2790 CL      11.3901    14.3620     4.9609 Cl    527 CCL4  -0.0812 
2791 C       11.9023    15.8138     4.1991 C.3   527 CCL4   0.3246 
2792 CL      11.7020    17.1573     5.2807 Cl    527 CCL4  -0.0812 
2793 CL      11.0569    16.2238     2.7249 Cl    527 CCL4  -0.0812 
2794 CL      13.6888    15.7789     3.8836 Cl    527 CCL4  -0.0812 
2795 CL      11.1877    16.3195     9.2042 Cl    528 CCL4  -0.0812 
2796 C       11.4484    18.0321     9.1091 C.3   528 CCL4   0.3246 
2797 CL      10.3264    18.8868     8.1450 Cl    528 CCL4  -0.0812 
2798 CL      13.1719    18.2297     8.3378 Cl    528 CCL4  -0.0812 
2799 CL      11.6873    18.7140    10.7677 Cl    528 CCL4  -0.0812 
2800 CL       7.3257    17.0516     7.6360 Cl    529 CCL4  -0.0812 
2801 C        6.9944    17.8201     6.0628 C.3   529 CCL4   0.3246 
2802 CL       5.3553    17.6194     5.5307 Cl    529 CCL4  -0.0812 
2803 CL       7.9956    17.1560     4.8097 Cl    529 CCL4  -0.0812 
2804 CL       7.2195    19.5474     6.2147 Cl    529 CCL4  -0.0812 
2805 CL       7.4283    18.1583    20.8194 Cl    530 CCL4  -0.0812 
2806 C        7.3374    19.0210    19.2621 C.3   530 CCL4   0.3246 
2807 CL       8.1657    20.6619    19.2582 Cl    530 CCL4  -0.0812 
2808 CL       5.6103    19.5361    19.0878 Cl    530 CCL4  -0.0812 
2809 CL       7.9348    18.0551    17.8615 Cl    530 CCL4  -0.0812 
2810 CL       8.4691    14.6769    19.5893 Cl    531 CCL4  -0.0812 
2811 C        9.5529    14.0788    18.3202 C.3   531 CCL4   0.3246 
2812 CL       8.6066    12.7472    17.6161 Cl    531 CCL4  -0.0812 
2813 CL      10.8850    13.2268    19.1336 Cl    531 CCL4  -0.0812 
2814 CL      10.0607    15.3301    17.1525 Cl    531 CCL4  -0.0812 
@<TRIPOS>BOND
   1    1    2  1   
   2    1    5  ar  
   3    1   13  ar  
   4    2    3  1   
   5    2    4  1   
   6    2   21  1   
   7    4  147  1   
   8    5    6  1   
   9    5    7  ar  
  10    7    8  1   
  11    7    9  ar  
  12    9   10  1   
  13    9   11  ar  
  14   11   12  1   
  15   11   13  ar  
  16   13   14  1   
  17   15   16  1   
  18   15   17  ar  
  19   15   24  ar  
  20   16   32  1   
  21   17   18  1   
  22   17   19  ar  
  23   19   20  1   
  24   19   21  ar  
  25   21   22  ar  
  26   22   23  1   
  27   22   24  ar  
  28   24   25  1   
  29   26   27  1   
  30   26   28  ar  
  31   26   35  ar  
  32   27   45  1   
  33   28   29  1   
  34   28   30  ar  
  35   30   31  1   
  36   30   32  ar  
  37   32   33  ar  
  38   33   34  1   
  39   33   35  ar  
  40   35   36  1   
  41   37   38  1   
  42   37   41  ar  
  43   37   48  ar  
  44   38   39  1   
  45   38   40  1   
  46   38   56  1   
  47   40   95  1   
  48   41   42  1   
  49   41   43  ar  
  50   43   44  1   
  51   43   45  ar  
  52   45   46  ar  
  53   46   47  1   
  54   46   48  ar  
  55   48   49  1   
  56   50   51  1   
  57   50   52  ar  
  58   50   59  ar  
  59   52   53  1   
  60   52   54  ar  
  61   54   55  1   
  62   54   56  ar  
  63   56   57  ar  
  64   57   58  1   
  65   57   59  ar  
  66   59   60  1   
  67   61   62  1   
  68   61  111  ar  
  69   61  112  ar  
  70   62   63  1   
  71   62   64  1   
  72   62   65  1   
  73   65   66  1   
  74   65   67  1   
  75   65  110  1   
  76   67   68  1   
  77   67   69  1   
  78   67   70  1   
  79   70   71  1   
  80   70  108  1   
  81   70  109  1   
  82   71   72  1   
  83   71   73  1   
  84   71  107  1   
  85   73   74  1   
  86   73   75  1   
  87   73   76  1   
  88   76   77  1   
  89   76   78  1   
  90   76  106  1   
  91   78   79  1   
  92   78   80  2   
  93   80   81  1   
  94   80   82  1   
  95   82   83  1   
  96   82  104  1   
  97   82  105  1   
  98   83   84  1   
  99   83   85  1   
 100   83  103  1   
 101   85   86  1   
 102   85   87  1   
 103   85   88  1   
 104   88   89  1   
 105   88   90  1   
 106   88  102  1   
 107   90   91  1   
 108   90   92  1   
 109   90   93  1   
 110   93   94  1   
 111   93   95  1   
 112   93  101  1   
 113   95   96  1   
 114   95   97  1   
 115   97   98  1   
 116   97   99  1   
 117   97  100  1   
 118  113  114  1   
 119  113  163  ar  
 120  113  164  ar  
 121  114  115  1   
 122  114  116  1   
 123  114  117  1   
 124  117  118  1   
 125  117  119  1   
 126  117  162  1   
 127  119  120  1   
 128  119  121  1   
 129  119  122  1   
 130  122  123  1   
 131  122  160  1   
 132  122  161  1   
 133  123  124  1   
 134  123  125  1   
 135  123  159  1   
 136  125  126  1   
 137  125  127  1   
 138  125  128  1   
 139  128  129  1   
 140  128  130  1   
 141  128  158  1   
 142  130  131  1   
 143  130  132  2   
 144  132  133  1   
 145  132  134  1   
 146  134  135  1   
 147  134  156  1   
 148  134  157  1   
 149  135  136  1   
 150  135  137  1   
 151  135  155  1   
 152  137  138  1   
 153  137  139  1   
 154  137  140  1   
 155  140  141  1   
 156  140  142  1   
 157  140  154  1   
 158  142  143  1   
 159  142  144  1   
 160  142  145  1   
 161  145  146  1   
 162  145  147  1   
 163  145  153  1   
 164  147  148  1   
 165  147  149  1   
 166  149  150  1   
 167  149  151  1   
 168  149  152  1   
 169  165  166  1   
 170  166  167  1   
 171  166  168  1   
 172  166  169  1   
 173  170  171  1   
 174  171  172  1   
 175  171  173  1   
 176  171  174  1   
 177  175  176  1   
 178  176  177  1   
 179  176  178  1   
 180  176  179  1   
 181  180  181  1   
 182  181  182  1   
 183  181  183  1   
 184  181  184  1   
 185  185  186  1   
 186  186  187  1   
 187  186  188  1   
 188  186  189  1   
 189  190  191  1   
 190  191  192  1   
 191  191  193  1   
 192  191  194  1   
 193  195  196  1   
 194  196  197  1   
 195  196  198  1   
 196  196  199  1   
 197  200  201  1   
 198  201  202  1   
 199  201  203  1   
 200  201  204  1   
 201  205  206  1   
 202  206  207  1   
 203  206  208  1   
 204  206  209  1   
 205  210  211  1   
 206  211  212  1   
 207  211  213  1   
 208  211  214  1   
 209  215  216  1   
 210  216  217  1   
 211  216  218  1   
 212  216  219  1   
 213  220  221  1   
 214  221  222  1   
 215  221  223  1   
 216  221  224  1   
 217  225  226  1   
 218  226  227  1   
 219  226  228  1   
 220  226  229  1   
 221  230  231  1   
 222  231  232  1   
 223  231  233  1   
 224  231  234  1   
 225  235  236  1   
 226  236  237  1   
 227  236  238  1   
 228  236  239  1   
 229  240  241  1   
 230  241  242  1   
 231  241  243  1   
 232  241  244  1   
 233  245  246  1   
 234  246  247  1   
 235  246  248  1   
 236  246  249  1   
 237  250  251  1   
 238  251  252  1   
 239  251  253  1   
 240  251  254  1   
 241  255  256  1   
 242  256  257  1   
 243  256  258  1   
 244  256  259  1   
 245  260  261  1   
 246  261  262  1   
 247  261  263  1   
 248  261  264  1   
 249  265  266  1   
 250  266  267  1   
 251  266  268  1   
 252  266  269  1   
 253  270  271  1   
 254  271  272  1   
 255  271  273  1   
 256  271  274  1   
 257  275  276  1   
 258  276  277  1   
 259  276  278  1   
 260  276  279  1   
 261  280  281  1   
 262  281  282  1   
 263  281  283  1   
 264  281  284  1   
 265  285  286  1   
 266  286  287  1   
 267  286  288  1   
 268  286  289  1   
 269  290  291  1   
 270  291  292  1   
 271  291  293  1   
 272  291  294  1   
 273  295  296  1   
 274  296  297  1   
 275  296  298  1   
 276  296  299  1   
 277  300  301  1   
 278  301  302  1   
 279  301  303  1   
 280  301  304  1   
 281  305  306  1   
 282  306  307  1   
 283  306  308  1   
 284  306  309  1   
 285  310  311  1   
 286  311  312  1   
 287  311  313  1   
 288  311  314  1   
 289  315  316  1   
 290  316  317  1   
 291  316  318  1   
 292  316  319  1   
 293  320  321  1   
 294  321  322  1   
 295  321  323  1   
 296  321  324  1   
 297  325  326  1   
 298  326  327  1   
 299  326  328  1   
 300  326  329  1   
 301  330  331  1   
 302  331  332  1   
 303  331  333  1   
 304  331  334  1   
 305  335  336  1   
 306  336  337  1   
 307  336  338  1   
 308  336  339  1   
 309  340  341  1   
 310  341  342  1   
 311  341  343  1   
 312  341  344  1   
 313  345  346  1   
 314  346  347  1   
 315  346  348  1   
 316  346  349  1   
 317  350  351  1   
 318  351  352  1   
 319  351  353  1   
 320  351  354  1   
 321  355  356  1   
 322  356  357  1   
 323  356  358  1   
 324  356  359  1   
 325  360  361  1   
 326  361  362  1   
 327  361  363  1   
 328  361  364  1   
 329  365  366  1   
 330  366  367  1   
 331  366  368  1   
 332  366  369  1   
 333  370  371  1   
 334  371  372  1   
 335  371  373  1   
 336  371  374  1   
 337  375  376  1   
 338  376  377  1   
 339  376  378  1   
 340  376  379  1   
 341  380  381  1   
 342  381  382  1   
 343  381  383  1   
 344  381  384  1   
 345  385  386  1   
 346  386  387  1   
 347  386  388  1   
 348  386  389  1   
 349  390  391  1   
 350  391  392  1   
 351  391  393  1   
 352  391  394  1   
 353  395  396  1   
 354  396  397  1   
 355  396  398  1   
 356  396  399  1   
 357  400  401  1   
 358  401  402  1   
 359  401  403  1   
 360  401  404  1   
 361  405  406  1   
 362  406  407  1   
 363  406  408  1   
 364  406  409  1   
 365  410  411  1   
 366  411  412  1   
 367  411  413  1   
 368  411  414  1   
 369  415  416  1   
 370  416  417  1   
 371  416  418  1   
 372  416  419  1   
 373  420  421  1   
 374  421  422  1   
 375  421  423  1   
 376  421  424  1   
 377  425  426  1   
 378  426  427  1   
 379  426  428  1   
 380  426  429  1   
 381  430  431  1   
 382  431  432  1   
 383  431  433  1   
 384  431  434  1   
 385  435  436  1   
 386  436  437  1   
 387  436  438  1   
 388  436  439  1   
 389  440  441  1   
 390  441  442  1   
 391  441  443  1   
 392  441  444  1   
 393  445  446  1   
 394  446  447  1   
 395  446  448  1   
 396  446  449  1   
 397  450  451  1   
 398  451  452  1   
 399  451  453  1   
 400  451  454  1   
 401  455  456  1   
 402  456  457  1   
 403  456  458  1   
 404  456  459  1   
 405  460  461  1   
 406  461  462  1   
 407  461  463  1   
 408  461  464  1   
 409  465  466  1   
 410  466  467  1   
 411  466  468  1   
 412  466  469  1   
 413  470  471  1   
 414  471  472  1   
 415  471  473  1   
 416  471  474  1   
 417  475  476  1   
 418  476  477  1   
 419  476  478  1   
 420  476  479  1   
 421  480  481  1   
 422  481  482  1   
 423  481  483  1   
 424  481  484  1   
 425  485  486  1   
 426  486  487  1   
 427  486  488  1   
 428  486  489  1   
 429  490  491  1   
 430  491  492  1   
 431  491  493  1   
 432  491  494  1   
 433  495  496  1   
 434  496  497  1   
 435  496  498  1   
 436  496  499  1   
 437  500  501  1   
 438  501  502  1   
 439  501  503  1   
 440  501  504  1   
 441  505  506  1   
 442  506  507  1   
 443  506  508  1   
 444  506  509  1   
 445  510  511  1   
 446  511  512  1   
 447  511  513  1   
 448  511  514  1   
 449  515  516  1   
 450  516  517  1   
 451  516  518  1   
 452  516  519  1   
 453  520  521  1   
 454  521  522  1   
 455  521  523  1   
 456  521  524  1   
 457  525  526  1   
 458  526  527  1   
 459  526  528  1   
 460  526  529  1   
 461  530  531  1   
 462  531  532  1   
 463  531  533  1   
 464  531  534  1   
 465  535  536  1   
 466  536  537  1   
 467  536  538  1   
 468  536  539  1   
 469  540  541  1   
 470  541  542  1   
 471  541  543  1   
 472  541  544  1   
 473  545  546  1   
 474  546  547  1   
 475  546  548  1   
 476  546  549  1   
 477  550  551  1   
 478  551  552  1   
 479  551  553  1   
 480  551  554  1   
 481  555  556  1   
 482  556  557  1   
 483  556  558  1   
 484  556  559  1   
 485  560  561  1   
 486  561  562  1   
 487  561  563  1   
 488  561  564  1   
 489  565  566  1   
 490  566  567  1   
 491  566  568  1   
 492  566  569  1   
 493  570  571  1   
 494  571  572  1   
 495  571  573  1   
 496  571  574  1   
 497  575  576  1   
 498  576  577  1   
 499  576  578  1   
 500  576  579  1   
 501  580  581  1   
 502  581  582  1   
 503  581  583  1   
 504  581  584  1   
 505  585  586  1   
 506  586  587  1   
 507  586  588  1   
 508  586  589  1   
 509  590  591  1   
 510  591  592  1   
 511  591  593  1   
 512  591  594  1   
 513  595  596  1   
 514  596  597  1   
 515  596  598  1   
 516  596  599  1   
 517  600  601  1   
 518  601  602  1   
 519  601  603  1   
 520  601  604  1   
 521  605  606  1   
 522  606  607  1   
 523  606  608  1   
 524  606  609  1   
 525  610  611  1   
 526  611  612  1   
 527  611  613  1   
 528  611  614  1   
 529  615  616  1   
 530  616  617  1   
 531  616  618  1   
 532  616  619  1   
 533  620  621  1   
 534  621  622  1   
 535  621  623  1   
 536  621  624  1   
 537  625  626  1   
 538  626  627  1   
 539  626  628  1   
 540  626  629  1   
 541  630  631  1   
 542  631  632  1   
 543  631  633  1   
 544  631  634  1   
 545  635  636  1   
 546  636  637  1   
 547  636  638  1   
 548  636  639  1   
 549  640  641  1   
 550  641  642  1   
 551  641  643  1   
 552  641  644  1   
 553  645  646  1   
 554  646  647  1   
 555  646  648  1   
 556  646  649  1   
 557  650  651  1   
 558  651  652  1   
 559  651  653  1   
 560  651  654  1   
 561  655  656  1   
 562  656  657  1   
 563  656  658  1   
 564  656  659  1   
 565  660  661  1   
 566  661  662  1   
 567  661  663  1   
 568  661  664  1   
 569  665  666  1   
 570  666  667  1   
 571  666  668  1   
 572  666  669  1   
 573  670  671  1   
 574  671  672  1   
 575  671  673  1   
 576  671  674  1   
 577  675  676  1   
 578  676  677  1   
 579  676  678  1   
 580  676  679  1   
 581  680  681  1   
 582  681  682  1   
 583  681  683  1   
 584  681  684  1   
 585  685  686  1   
 586  686  687  1   
 587  686  688  1   
 588  686  689  1   
 589  690  691  1   
 590  691  692  1   
 591  691  693  1   
 592  691  694  1   
 593  695  696  1   
 594  696  697  1   
 595  696  698  1   
 596  696  699  1   
 597  700  701  1   
 598  701  702  1   
 599  701  703  1   
 600  701  704  1   
 601  705  706  1   
 602  706  707  1   
 603  706  708  1   
 604  706  709  1   
 605  710  711  1   
 606  711  712  1   
 607  711  713  1   
 608  711  714  1   
 609  715  716  1   
 610  716  717  1   
 611  716  718  1   
 612  716  719  1   
 613  720  721  1   
 614  721  722  1   
 615  721  723  1   
 616  721  724  1   
 617  725  726  1   
 618  726  727  1   
 619  726  728  1   
 620  726  729  1   
 621  730  731  1   
 622  731  732  1   
 623  731  733  1   
 624  731  734  1   
 625  735  736  1   
 626  736  737  1   
 627  736  738  1   
 628  736  739  1   
 629  740  741  1   
 630  741  742  1   
 631  741  743  1   
 632  741  744  1   
 633  745  746  1   
 634  746  747  1   
 635  746  748  1   
 636  746  749  1   
 637  750  751  1   
 638  751  752  1   
 639  751  753  1   
 640  751  754  1   
 641  755  756  1   
 642  756  757  1   
 643  756  758  1   
 644  756  759  1   
 645  760  761  1   
 646  761  762  1   
 647  761  763  1   
 648  761  764  1   
 649  765  766  1   
 650  766  767  1   
 651  766  768  1   
 652  766  769  1   
 653  770  771  1   
 654  771  772  1   
 655  771  773  1   
 656  771  774  1   
 657  775  776  1   
 658  776  777  1   
 659  776  778  1   
 660  776  779  1   
 661  780  781  1   
 662  781  782  1   
 663  781  783  1   
 664  781  784  1   
 665  785  786  1   
 666  786  787  1   
 667  786  788  1   
 668  786  789  1   
 669  790  791  1   
 670  791  792  1   
 671  791  793  1   
 672  791  794  1   
 673  795  796  1   
 674  796  797  1   
 675  796  798  1   
 676  796  799  1   
 677  800  801  1   
 678  801  802  1   
 679  801  803  1   
 680  801  804  1   
 681  805  806  1   
 682  806  807  1   
 683  806  808  1   
 684  806  809  1   
 685  810  811  1   
 686  811  812  1   
 687  811  813  1   
 688  811  814  1   
 689  815  816  1   
 690  816  817  1   
 691  816  818  1   
 692  816  819  1   
 693  820  821  1   
 694  821  822  1   
 695  821  823  1   
 696  821  824  1   
 697  825  826  1   
 698  826  827  1   
 699  826  828  1   
 700  826  829  1   
 701  830  831  1   
 702  831  832  1   
 703  831  833  1   
 704  831  834  1   
 705  835  836  1   
 706  836  837  1   
 707  836  838  1   
 708  836  839  1   
 709  840  841  1   
 710  841  842  1   
 711  841  843  1   
 712  841  844  1   
 713  845  846  1   
 714  846  847  1   
 715  846  848  1   
 716  846  849  1   
 717  850  851  1   
 718  851  852  1   
 719  851  853  1   
 720  851  854  1   
 721  855  856  1   
 722  856  857  1   
 723  856  858  1   
 724  856  859  1   
 725  860  861  1   
 726  861  862  1   
 727  861  863  1   
 728  861  864  1   
 729  865  866  1   
 730  866  867  1   
 731  866  868  1   
 732  866  869  1   
 733  870  871  1   
 734  871  872  1   
 735  871  873  1   
 736  871  874  1   
 737  875  876  1   
 738  876  877  1   
 739  876  878  1   
 740  876  879  1   
 741  880  881  1   
 742  881  882  1   
 743  881  883  1   
 744  881  884  1   
 745  885  886  1   
 746  886  887  1   
 747  886  888  1   
 748  886  889  1   
 749  890  891  1   
 750  891  892  1   
 751  891  893  1   
 752  891  894  1   
 753  895  896  1   
 754  896  897  1   
 755  896  898  1   
 756  896  899  1   
 757  900  901  1   
 758  901  902  1   
 759  901  903  1   
 760  901  904  1   
 761  905  906  1   
 762  906  907  1   
 763  906  908  1   
 764  906  909  1   
 765  910  911  1   
 766  911  912  1   
 767  911  913  1   
 768  911  914  1   
 769  915  916  1   
 770  916  917  1   
 771  916  918  1   
 772  916  919  1   
 773  920  921  1   
 774  921  922  1   
 775  921  923  1   
 776  921  924  1   
 777  925  926  1   
 778  926  927  1   
 779  926  928  1   
 780  926  929  1   
 781  930  931  1   
 782  931  932  1   
 783  931  933  1   
 784  931  934  1   
 785  935  936  1   
 786  936  937  1   
 787  936  938  1   
 788  936  939  1   
 789  940  941  1   
 790  941  942  1   
 791  941  943  1   
 792  941  944  1   
 793  945  946  1   
 794  946  947  1   
 795  946  948  1   
 796  946  949  1   
 797  950  951  1   
 798  951  952  1   
 799  951  953  1   
 800  951  954  1   
 801  955  956  1   
 802  956  957  1   
 803  956  958  1   
 804  956  959  1   
 805  960  961  1   
 806  961  962  1   
 807  961  963  1   
 808  961  964  1   
 809  965  966  1   
 810  966  967  1   
 811  966  968  1   
 812  966  969  1   
 813  970  971  1   
 814  971  972  1   
 815  971  973  1   
 816  971  974  1   
 817  975  976  1   
 818  976  977  1   
 819  976  978  1   
 820  976  979  1   
 821  980  981  1   
 822  981  982  1   
 823  981  983  1   
 824  981  984  1   
 825  985  986  1   
 826  986  987  1   
 827  986  988  1   
 828  986  989  1   
 829  990  991  1   
 830  991  992  1   
 831  991  993  1   
 832  991  994  1   
 833  995  996  1   
 834  996  997  1   
 835  996  998  1   
 836  996  999  1   
 837 1000 1001  1   
 838 1001 1002  1   
 839 1001 1003  1   
 840 1001 1004  1   
 841 1005 1006  1   
 842 1006 1007  1   
 843 1006 1008  1   
 844 1006 1009  1   
 845 1010 1011  1   
 846 1011 1012  1   
 847 1011 1013  1   
 848 1011 1014  1   
 849 1015 1016  1   
 850 1016 1017  1   
 851 1016 1018  1   
 852 1016 1019  1   
 853 1020 1021  1   
 854 1021 1022  1   
 855 1021 1023  1   
 856 1021 1024  1   
 857 1025 1026  1   
 858 1026 1027  1   
 859 1026 1028  1   
 860 1026 1029  1   
 861 1030 1031  1   
 862 1031 1032  1   
 863 1031 1033  1   
 864 1031 1034  1   
 865 1035 1036  1   
 866 1036 1037  1   
 867 1036 1038  1   
 868 1036 1039  1   
 869 1040 1041  1   
 870 1041 1042  1   
 871 1041 1043  1   
 872 1041 1044  1   
 873 1045 1046  1   
 874 1046 1047  1   
 875 1046 1048  1   
 876 1046 1049  1   
 877 1050 1051  1   
 878 1051 1052  1   
 879 1051 1053  1   
 880 1051 1054  1   
 881 1055 1056  1   
 882 1056 1057  1   
 883 1056 1058  1   
 884 1056 1059  1   
 885 1060 1061  1   
 886 1061 1062  1   
 887 1061 1063  1   
 888 1061 1064  1   
 889 1065 1066  1   
 890 1066 1067  1   
 891 1066 1068  1   
 892 1066 1069  1   
 893 1070 1071  1   
 894 1071 1072  1   
 895 1071 1073  1   
 896 1071 1074  1   
 897 1075 1076  1   
 898 1076 1077  1   
 899 1076 1078  1   
 900 1076 1079  1   
 901 1080 1081  1   
 902 1081 1082  1   
 903 1081 1083  1   
 904 1081 1084  1   
 905 1085 1086  1   
 906 1086 1087  1   
 907 1086 1088  1   
 908 1086 1089  1   
 909 1090 1091  1   
 910 1091 1092  1   
 911 1091 1093  1   
 912 1091 1094  1   
 913 1095 1096  1   
 914 1096 1097  1   
 915 1096 1098  1   
 916 1096 1099  1   
 917 1100 1101  1   
 918 1101 1102  1   
 919 1101 1103  1   
 920 1101 1104  1   
 921 1105 1106  1   
 922 1106 1107  1   
 923 1106 1108  1   
 924 1106 1109  1   
 925 1110 1111  1   
 926 1111 1112  1   
 927 1111 1113  1   
 928 1111 1114  1   
 929 1115 1116  1   
 930 1116 1117  1   
 931 1116 1118  1   
 932 1116 1119  1   
 933 1120 1121  1   
 934 1121 1122  1   
 935 1121 1123  1   
 936 1121 1124  1   
 937 1125 1126  1   
 938 1126 1127  1   
 939 1126 1128  1   
 940 1126 1129  1   
 941 1130 1131  1   
 942 1131 1132  1   
 943 1131 1133  1   
 944 1131 1134  1   
 945 1135 1136  1   
 946 1136 1137  1   
 947 1136 1138  1   
 948 1136 1139  1   
 949 1140 1141  1   
 950 1141 1142  1   
 951 1141 1143  1   
 952 1141 1144  1   
 953 1145 1146  1   
 954 1146 1147  1   
 955 1146 1148  1   
 956 1146 1149  1   
 957 1150 1151  1   
 958 1151 1152  1   
 959 1151 1153  1   
 960 1151 1154  1   
 961 1155 1156  1   
 962 1156 1157  1   
 963 1156 1158  1   
 964 1156 1159  1   
 965 1160 1161  1   
 966 1161 1162  1   
 967 1161 1163  1   
 968 1161 1164  1   
 969 1165 1166  1   
 970 1166 1167  1   
 971 1166 1168  1   
 972 1166 1169  1   
 973 1170 1171  1   
 974 1171 1172  1   
 975 1171 1173  1   
 976 1171 1174  1   
 977 1175 1176  1   
 978 1176 1177  1   
 979 1176 1178  1   
 980 1176 1179  1   
 981 1180 1181  1   
 982 1181 1182  1   
 983 1181 1183  1   
 984 1181 1184  1   
 985 1185 1186  1   
 986 1186 1187  1   
 987 1186 1188  1   
 988 1186 1189  1   
 989 1190 1191  1   
 990 1191 1192  1   
 991 1191 1193  1   
 992 1191 1194  1   
 993 1195 1196  1   
 994 1196 1197  1   
 995 1196 1198  1   
 996 1196 1199  1   
 997 1200 1201  1   
 998 1201 1202  1   
 999 1201 1203  1   
1000 1201 1204  1   
1001 1205 1206  1   
1002 1206 1207  1   
1003 1206 1208  1   
1004 1206 1209  1   
1005 1210 1211  1   
1006 1211 1212  1   
1007 1211 1213  1   
1008 1211 1214  1   
1009 1215 1216  1   
1010 1216 1217  1   
1011 1216 1218  1   
1012 1216 1219  1   
1013 1220 1221  1   
1014 1221 1222  1   
1015 1221 1223  1   
1016 1221 1224  1   
1017 1225 1226  1   
1018 1226 1227  1   
1019 1226 1228  1   
1020 1226 1229  1   
1021 1230 1231  1   
1022 1231 1232  1   
1023 1231 1233  1   
1024 1231 1234  1   
1025 1235 1236  1   
1026 1236 1237  1   
1027 1236 1238  1   
1028 1236 1239  1   
1029 1240 1241  1   
1030 1241 1242  1   
1031 1241 1243  1   
1032 1241 1244  1   
1033 1245 1246  1   
1034 1246 1247  1   
1035 1246 1248  1   
1036 1246 1249  1   
1037 1250 1251  1   
1038 1251 1252  1   
1039 1251 1253  1   
1040 1251 1254  1   
1041 1255 1256  1   
1042 1256 1257  1   
1043 1256 1258  1   
1044 1256 1259  1   
1045 1260 1261  1   
1046 1261 1262  1   
1047 1261 1263  1   
1048 1261 1264  1   
1049 1265 1266  1   
1050 1266 1267  1   
1051 1266 1268  1   
1052 1266 1269  1   
1053 1270 1271  1   
1054 1271 1272  1   
1055 1271 1273  1   
1056 1271 1274  1   
1057 1275 1276  1   
1058 1276 1277  1   
1059 1276 1278  1   
1060 1276 1279  1   
1061 1280 1281  1   
1062 1281 1282  1   
1063 1281 1283  1   
1064 1281 1284  1   
1065 1285 1286  1   
1066 1286 1287  1   
1067 1286 1288  1   
1068 1286 1289  1   
1069 1290 1291  1   
1070 1291 1292  1   
1071 1291 1293  1   
1072 1291 1294  1   
1073 1295 1296  1   
1074 1296 1297  1   
1075 1296 1298  1   
1076 1296 1299  1   
1077 1300 1301  1   
1078 1301 1302  1   
1079 1301 1303  1   
1080 1301 1304  1   
1081 1305 1306  1   
1082 1306 1307  1   
1083 1306 1308  1   
1084 1306 1309  1   
1085 1310 1311  1   
1086 1311 1312  1   
1087 1311 1313  1   
1088 1311 1314  1   
1089 1315 1316  1   
1090 1316 1317  1   
1091 1316 1318  1   
1092 1316 1319  1   
1093 1320 1321  1   
1094 1321 1322  1   
1095 1321 1323  1   
1096 1321 1324  1   
1097 1325 1326  1   
1098 1326 1327  1   
1099 1326 1328  1   
1100 1326 1329  1   
1101 1330 1331  1   
1102 1331 1332  1   
1103 1331 1333  1   
1104 1331 1334  1   
1105 1335 1336  1   
1106 1336 1337  1   
1107 1336 1338  1   
1108 1336 1339  1   
1109 1340 1341  1   
1110 1341 1342  1   
1111 1341 1343  1   
1112 1341 1344  1   
1113 1345 1346  1   
1114 1346 1347  1   
1115 1346 1348  1   
1116 1346 1349  1   
1117 1350 1351  1   
1118 1351 1352  1   
1119 1351 1353  1   
1120 1351 1354  1   
1121 1355 1356  1   
1122 1356 1357  1   
1123 1356 1358  1   
1124 1356 1359  1   
1125 1360 1361  1   
1126 1361 1362  1   
1127 1361 1363  1   
1128 1361 1364  1   
1129 1365 1366  1   
1130 1366 1367  1   
1131 1366 1368  1   
1132 1366 1369  1   
1133 1370 1371  1   
1134 1371 1372  1   
1135 1371 1373  1   
1136 1371 1374  1   
1137 1375 1376  1   
1138 1376 1377  1   
1139 1376 1378  1   
1140 1376 1379  1   
1141 1380 1381  1   
1142 1381 1382  1   
1143 1381 1383  1   
1144 1381 1384  1   
1145 1385 1386  1   
1146 1386 1387  1   
1147 1386 1388  1   
1148 1386 1389  1   
1149 1390 1391  1   
1150 1391 1392  1   
1151 1391 1393  1   
1152 1391 1394  1   
1153 1395 1396  1   
1154 1396 1397  1   
1155 1396 1398  1   
1156 1396 1399  1   
1157 1400 1401  1   
1158 1401 1402  1   
1159 1401 1403  1   
1160 1401 1404  1   
1161 1405 1406  1   
1162 1406 1407  1   
1163 1406 1408  1   
1164 1406 1409  1   
1165 1410 1411  1   
1166 1411 1412  1   
1167 1411 1413  1   
1168 1411 1414  1   
1169 1415 1416  1   
1170 1416 1417  1   
1171 1416 1418  1   
1172 1416 1419  1   
1173 1420 1421  1   
1174 1421 1422  1   
1175 1421 1423  1   
1176 1421 1424  1   
1177 1425 1426  1   
1178 1426 1427  1   
1179 1426 1428  1   
1180 1426 1429  1   
1181 1430 1431  1   
1182 1431 1432  1   
1183 1431 1433  1   
1184 1431 1434  1   
1185 1435 1436  1   
1186 1436 1437  1   
1187 1436 1438  1   
1188 1436 1439  1   
1189 1440 1441  1   
1190 1441 1442  1   
1191 1441 1443  1   
1192 1441 1444  1   
1193 1445 1446  1   
1194 1446 1447  1   
1195 1446 1448  1   
1196 1446 1449  1   
1197 1450 1451  1   
1198 1451 1452  1   
1199 1451 1453  1   
1200 1451 1454  1   
1201 1455 1456  1   
1202 1456 1457  1   
1203 1456 1458  1   
1204 1456 1459  1   
1205 1460 1461  1   
1206 1461 1462  1   
1207 1461 1463  1   
1208 1461 1464  1   
1209 1465 1466  1   
1210 1466 1467  1   
1211 1466 1468  1   
1212 1466 1469  1   
1213 1470 1471  1   
1214 1471 1472  1   
1215 1471 1473  1   
1216 1471 1474  1   
1217 1475 1476  1   
1218 1476 1477  1   
1219 1476 1478  1   
1220 1476 1479  1   
1221 1480 1481  1   
1222 1481 1482  1   
1223 1481 1483  1   
1224 1481 1484  1   
1225 1485 1486  1   
1226 1486 1487  1   
1227 1486 1488  1   
1228 1486 1489  1   
1229 1490 1491  1   
1230 1491 1492  1   
1231 1491 1493  1   
1232 1491 1494  1   
1233 1495 1496  1   
1234 1496 1497  1   
1235 1496 1498  1   
1236 1496 1499  1   
1237 1500 1501  1   
1238 1501 1502  1   
1239 1501 1503  1   
1240 1501 1504  1   
1241 1505 1506  1   
1242 1506 1507  1   
1243 1506 1508  1   
1244 1506 1509  1   
1245 1510 1511  1   
1246 1511 1512  1   
1247 1511 1513  1   
1248 1511 1514  1   
1249 1515 1516  1   
1250 1516 1517  1   
1251 1516 1518  1   
1252 1516 1519  1   
1253 1520 1521  1   
1254 1521 1522  1   
1255 1521 1523  1   
1256 1521 1524  1   
1257 1525 1526  1   
1258 1526 1527  1   
1259 1526 1528  1   
1260 1526 1529  1   
1261 1530 1531  1   
1262 1531 1532  1   
1263 1531 1533  1   
1264 1531 1534  1   
1265 1535 1536  1   
1266 1536 1537  1   
1267 1536 1538  1   
1268 1536 1539  1   
1269 1540 1541  1   
1270 1541 1542  1   
1271 1541 1543  1   
1272 1541 1544  1   
1273 1545 1546  1   
1274 1546 1547  1   
1275 1546 1548  1   
1276 1546 1549  1   
1277 1550 1551  1   
1278 1551 1552  1   
1279 1551 1553  1   
1280 1551 1554  1   
1281 1555 1556  1   
1282 1556 1557  1   
1283 1556 1558  1   
1284 1556 1559  1   
1285 1560 1561  1   
1286 1561 1562  1   
1287 1561 1563  1   
1288 1561 1564  1   
1289 1565 1566  1   
1290 1566 1567  1   
1291 1566 1568  1   
1292 1566 1569  1   
1293 1570 1571  1   
1294 1571 1572  1   
1295 1571 1573  1   
1296 1571 1574  1   
1297 1575 1576  1   
1298 1576 1577  1   
1299 1576 1578  1   
1300 1576 1579  1   
1301 1580 1581  1   
1302 1581 1582  1   
1303 1581 1583  1   
1304 1581 1584  1   
1305 1585 1586  1   
1306 1586 1587  1   
1307 1586 1588  1   
1308 1586 1589  1   
1309 1590 1591  1   
1310 1591 1592  1   
1311 1591 1593  1   
1312 1591 1594  1   
1313 1595 1596  1   
1314 1596 1597  1   
1315 1596 1598  1   
1316 1596 1599  1   
1317 1600 1601  1   
1318 1601 1602  1   
1319 1601 1603  1   
1320 1601 1604  1   
1321 1605 1606  1   
1322 1606 1607  1   
1323 1606 1608  1   
1324 1606 1609  1   
1325 1610 1611  1   
1326 1611 1612  1   
1327 1611 1613  1   
1328 1611 1614  1   
1329 1615 1616  1   
1330 1616 1617  1   
1331 1616 1618  1   
1332 1616 1619  1   
1333 1620 1621  1   
1334 1621 1622  1   
1335 1621 1623  1   
1336 1621 1624  1   
1337 1625 1626  1   
1338 1626 1627  1   
1339 1626 1628  1   
1340 1626 1629  1   
1341 1630 1631  1   
1342 1631 1632  1   
1343 1631 1633  1   
1344 1631 1634  1   
1345 1635 1636  1   
1346 1636 1637  1   
1347 1636 1638  1   
1348 1636 1639  1   
1349 1640 1641  1   
1350 1641 1642  1   
1351 1641 1643  1   
1352 1641 1644  1   
1353 1645 1646  1   
1354 1646 1647  1   
1355 1646 1648  1   
1356 1646 1649  1   
1357 1650 1651  1   
1358 1651 1652  1   
1359 1651 1653  1   
1360 1651 1654  1   
1361 1655 1656  1   
1362 1656 1657  1   
1363 1656 1658  1   
1364 1656 1659  1   
1365 1660 1661  1   
1366 1661 1662  1   
1367 1661 1663  1   
1368 1661 1664  1   
1369 1665 1666  1   
1370 1666 1667  1   
1371 1666 1668  1   
1372 1666 1669  1   
1373 1670 1671  1   
1374 1671 1672  1   
1375 1671 1673  1   
1376 1671 1674  1   
1377 1675 1676  1   
1378 1676 1677  1   
1379 1676 1678  1   
1380 1676 1679  1   
1381 1680 1681  1   
1382 1681 1682  1   
1383 1681 1683  1   
1384 1681 1684  1   
1385 1685 1686  1   
1386 1686 1687  1   
1387 1686 1688  1   
1388 1686 1689  1   
1389 1690 1691  1   
1390 1691 1692  1   
1391 1691 1693  1   
1392 1691 1694  1   
1393 1695 1696  1   
1394 1696 1697  1   
1395 1696 1698  1   
1396 1696 1699  1   
1397 1700 1701  1   
1398 1701 1702  1   
1399 1701 1703  1   
1400 1701 1704  1   
1401 1705 1706  1   
1402 1706 1707  1   
1403 1706 1708  1   
1404 1706 1709  1   
1405 1710 1711  1   
1406 1711 1712  1   
1407 1711 1713  1   
1408 1711 1714  1   
1409 1715 1716  1   
1410 1716 1717  1   
1411 1716 1718  1   
1412 1716 1719  1   
1413 1720 1721  1   
1414 1721 1722  1   
1415 1721 1723  1   
1416 1721 1724  1   
1417 1725 1726  1   
1418 1726 1727  1   
1419 1726 1728  1   
1420 1726 1729  1   
1421 1730 1731  1   
1422 1731 1732  1   
1423 1731 1733  1   
1424 1731 1734  1   
1425 1735 1736  1   
1426 1736 1737  1   
1427 1736 1738  1   
1428 1736 1739  1   
1429 1740 1741  1   
1430 1741 1742  1   
1431 1741 1743  1   
1432 1741 1744  1   
1433 1745 1746  1   
1434 1746 1747  1   
1435 1746 1748  1   
1436 1746 1749  1   
1437 1750 1751  1   
1438 1751 1752  1   
1439 1751 1753  1   
1440 1751 1754  1   
1441 1755 1756  1   
1442 1756 1757  1   
1443 1756 1758  1   
1444 1756 1759  1   
1445 1760 1761  1   
1446 1761 1762  1   
1447 1761 1763  1   
1448 1761 1764  1   
1449 1765 1766  1   
1450 1766 1767  1   
1451 1766 1768  1   
1452 1766 1769  1   
1453 1770 1771  1   
1454 1771 1772  1   
1455 1771 1773  1   
1456 1771 1774  1   
1457 1775 1776  1   
1458 1776 1777  1   
1459 1776 1778  1   
1460 1776 1779  1   
1461 1780 1781  1   
1462 1781 1782  1   
1463 1781 1783  1   
1464 1781 1784  1   
1465 1785 1786  1   
1466 1786 1787  1   
1467 1786 1788  1   
1468 1786 1789  1   
1469 1790 1791  1   
1470 1791 1792  1   
1471 1791 1793  1   
1472 1791 1794  1   
1473 1795 1796  1   
1474 1796 1797  1   
1475 1796 1798  1   
1476 1796 1799  1   
1477 1800 1801  1   
1478 1801 1802  1   
1479 1801 1803  1   
1480 1801 1804  1   
1481 1805 1806  1   
1482 1806 1807  1   
1483 1806 1808  1   
1484 1806 1809  1   
1485 1810 1811  1   
1486 1811 1812  1   
1487 1811 1813  1   
1488 1811 1814  1   
1489 1815 1816  1   
1490 1816 1817  1   
1491 1816 1818  1   
1492 1816 1819  1   
1493 1820 1821  1   
1494 1821 1822  1   
1495 1821 1823  1   
1496 1821 1824  1   
1497 1825 1826  1   
1498 1826 1827  1   
1499 1826 1828  1   
1500 1826 1829  1   
1501 1830 1831  1   
1502 1831 1832  1   
1503 1831 1833  1   
1504 1831 1834  1   
1505 1835 1836  1   
1506 1836 1837  1   
1507 1836 1838  1   
1508 1836 1839  1   
1509 1840 1841  1   
1510 1841 1842  1   
1511 1841 1843  1   
1512 1841 1844  1   
1513 1845 1846  1   
1514 1846 1847  1   
1515 1846 1848  1   
1516 1846 1849  1   
1517 1850 1851  1   
1518 1851 1852  1   
1519 1851 1853  1   
1520 1851 1854  1   
1521 1855 1856  1   
1522 1856 1857  1   
1523 1856 1858  1   
1524 1856 1859  1   
1525 1860 1861  1   
1526 1861 1862  1   
1527 1861 1863  1   
1528 1861 1864  1   
1529 1865 1866  1   
1530 1866 1867  1   
1531 1866 1868  1   
1532 1866 1869  1   
1533 1870 1871  1   
1534 1871 1872  1   
1535 1871 1873  1   
1536 1871 1874  1   
1537 1875 1876  1   
1538 1876 1877  1   
1539 1876 1878  1   
1540 1876 1879  1   
1541 1880 1881  1   
1542 1881 1882  1   
1543 1881 1883  1   
1544 1881 1884  1   
1545 1885 1886  1   
1546 1886 1887  1   
1547 1886 1888  1   
1548 1886 1889  1   
1549 1890 1891  1   
1550 1891 1892  1   
1551 1891 1893  1   
1552 1891 1894  1   
1553 1895 1896  1   
1554 1896 1897  1   
1555 1896 1898  1   
1556 1896 1899  1   
1557 1900 1901  1   
1558 1901 1902  1   
1559 1901 1903  1   
1560 1901 1904  1   
1561 1905 1906  1   
1562 1906 1907  1   
1563 1906 1908  1   
1564 1906 1909  1   
1565 1910 1911  1   
1566 1911 1912  1   
1567 1911 1913  1   
1568 1911 1914  1   
1569 1915 1916  1   
1570 1916 1917  1   
1571 1916 1918  1   
1572 1916 1919  1   
1573 1920 1921  1   
1574 1921 1922  1   
1575 1921 1923  1   
1576 1921 1924  1   
1577 1925 1926  1   
1578 1926 1927  1   
1579 1926 1928  1   
1580 1926 1929  1   
1581 1930 1931  1   
1582 1931 1932  1   
1583 1931 1933  1   
1584 1931 1934  1   
1585 1935 1936  1   
1586 1936 1937  1   
1587 1936 1938  1   
1588 1936 1939  1   
1589 1940 1941  1   
1590 1941 1942  1   
1591 1941 1943  1   
1592 1941 1944  1   
1593 1945 1946  1   
1594 1946 1947  1   
1595 1946 1948  1   
1596 1946 1949  1   
1597 1950 1951  1   
1598 1951 1952  1   
1599 1951 1953  1   
1600 1951 1954  1   
1601 1955 1956  1   
1602 1956 1957  1   
1603 1956 1958  1   
1604 1956 1959  1   
1605 1960 1961  1   
1606 1961 1962  1   
1607 1961 1963  1   
1608 1961 1964  1   
1609 1965 1966  1   
1610 1966 1967  1   
1611 1966 1968  1   
1612 1966 1969  1   
1613 1970 1971  1   
1614 1971 1972  1   
1615 1971 1973  1   
1616 1971 1974  1   
1617 1975 1976  1   
1618 1976 1977  1   
1619 1976 1978  1   
1620 1976 1979  1   
1621 1980 1981  1   
1622 1981 1982  1   
1623 1981 1983  1   
1624 1981 1984  1   
1625 1985 1986  1   
1626 1986 1987  1   
1627 1986 1988  1   
1628 1986 1989  1   
1629 1990 1991  1   
1630 1991 1992  1   
1631 1991 1993  1   
1632 1991 1994  1   
1633 1995 1996  1   
1634 1996 1997  1   
1635 1996 1998  1   
1636 1996 1999  1   
1637 2000 2001  1   
1638 2001 2002  1   
1639 2001 2003  1   
1640 2001 2004  1   
1641 2005 2006  1   
1642 2006 2007  1   
1643 2006 2008  1   
1644 2006 2009  1   
1645 2010 2011  1   
1646 2011 2012  1   
1647 2011 2013  1   
1648 2011 2014  1   
1649 2015 2016  1   
1650 2016 2017  1   
1651 2016 2018  1   
1652 2016 2019  1   
1653 2020 2021  1   
1654 2021 2022  1   
1655 2021 2023  1   
1656 2021 2024  1   
1657 2025 2026  1   
1658 2026 2027  1   
1659 2026 2028  1   
1660 2026 2029  1   
1661 2030 2031  1   
1662 2031 2032  1   
1663 2031 2033  1   
1664 2031 2034  1   
1665 2035 2036  1   
1666 2036 2037  1   
1667 2036 2038  1   
1668 2036 2039  1   
1669 2040 2041  1   
1670 2041 2042  1   
1671 2041 2043  1   
1672 2041 2044  1   
1673 2045 2046  1   
1674 2046 2047  1   
1675 2046 2048  1   
1676 2046 2049  1   
1677 2050 2051  1   
1678 2051 2052  1   
1679 2051 2053  1   
1680 2051 2054  1   
1681 2055 2056  1   
1682 2056 2057  1   
1683 2056 2058  1   
1684 2056 2059  1   
1685 2060 2061  1   
1686 2061 2062  1   
1687 2061 2063  1   
1688 2061 2064  1   
1689 2065 2066  1   
1690 2066 2067  1   
1691 2066 2068  1   
1692 2066 2069  1   
1693 2070 2071  1   
1694 2071 2072  1   
1695 2071 2073  1   
1696 2071 2074  1   
1697 2075 2076  1   
1698 2076 2077  1   
1699 2076 2078  1   
1700 2076 2079  1   
1701 2080 2081  1   
1702 2081 2082  1   
1703 2081 2083  1   
1704 2081 2084  1   
1705 2085 2086  1   
1706 2086 2087  1   
1707 2086 2088  1   
1708 2086 2089  1   
1709 2090 2091  1   
1710 2091 2092  1   
1711 2091 2093  1   
1712 2091 2094  1   
1713 2095 2096  1   
1714 2096 2097  1   
1715 2096 2098  1   
1716 2096 2099  1   
1717 2100 2101  1   
1718 2101 2102  1   
1719 2101 2103  1   
1720 2101 2104  1   
1721 2105 2106  1   
1722 2106 2107  1   
1723 2106 2108  1   
1724 2106 2109  1   
1725 2110 2111  1   
1726 2111 2112  1   
1727 2111 2113  1   
1728 2111 2114  1   
1729 2115 2116  1   
1730 2116 2117  1   
1731 2116 2118  1   
1732 2116 2119  1   
1733 2120 2121  1   
1734 2121 2122  1   
1735 2121 2123  1   
1736 2121 2124  1   
1737 2125 2126  1   
1738 2126 2127  1   
1739 2126 2128  1   
1740 2126 2129  1   
1741 2130 2131  1   
1742 2131 2132  1   
1743 2131 2133  1   
1744 2131 2134  1   
1745 2135 2136  1   
1746 2136 2137  1   
1747 2136 2138  1   
1748 2136 2139  1   
1749 2140 2141  1   
1750 2141 2142  1   
1751 2141 2143  1   
1752 2141 2144  1   
1753 2145 2146  1   
1754 2146 2147  1   
1755 2146 2148  1   
1756 2146 2149  1   
1757 2150 2151  1   
1758 2151 2152  1   
1759 2151 2153  1   
1760 2151 2154  1   
1761 2155 2156  1   
1762 2156 2157  1   
1763 2156 2158  1   
1764 2156 2159  1   
1765 2160 2161  1   
1766 2161 2162  1   
1767 2161 2163  1   
1768 2161 2164  1   
1769 2165 2166  1   
1770 2166 2167  1   
1771 2166 2168  1   
1772 2166 2169  1   
1773 2170 2171  1   
1774 2171 2172  1   
1775 2171 2173  1   
1776 2171 2174  1   
1777 2175 2176  1   
1778 2176 2177  1   
1779 2176 2178  1   
1780 2176 2179  1   
1781 2180 2181  1   
1782 2181 2182  1   
1783 2181 2183  1   
1784 2181 2184  1   
1785 2185 2186  1   
1786 2186 2187  1   
1787 2186 2188  1   
1788 2186 2189  1   
1789 2190 2191  1   
1790 2191 2192  1   
1791 2191 2193  1   
1792 2191 2194  1   
1793 2195 2196  1   
1794 2196 2197  1   
1795 2196 2198  1   
1796 2196 2199  1   
1797 2200 2201  1   
1798 2201 2202  1   
1799 2201 2203  1   
1800 2201 2204  1   
1801 2205 2206  1   
1802 2206 2207  1   
1803 2206 2208  1   
1804 2206 2209  1   
1805 2210 2211  1   
1806 2211 2212  1   
1807 2211 2213  1   
1808 2211 2214  1   
1809 2215 2216  1   
1810 2216 2217  1   
1811 2216 2218  1   
1812 2216 2219  1   
1813 2220 2221  1   
1814 2221 2222  1   
1815 2221 2223  1   
1816 2221 2224  1   
1817 2225 2226  1   
1818 2226 2227  1   
1819 2226 2228  1   
1820 2226 2229  1   
1821 2230 2231  1   
1822 2231 2232  1   
1823 2231 2233  1   
1824 2231 2234  1   
1825 2235 2236  1   
1826 2236 2237  1   
1827 2236 2238  1   
1828 2236 2239  1   
1829 2240 2241  1   
1830 2241 2242  1   
1831 2241 2243  1   
1832 2241 2244  1   
1833 2245 2246  1   
1834 2246 2247  1   
1835 2246 2248  1   
1836 2246 2249  1   
1837 2250 2251  1   
1838 2251 2252  1   
1839 2251 2253  1   
1840 2251 2254  1   
1841 2255 2256  1   
1842 2256 2257  1   
1843 2256 2258  1   
1844 2256 2259  1   
1845 2260 2261  1   
1846 2261 2262  1   
1847 2261 2263  1   
1848 2261 2264  1   
1849 2265 2266  1   
1850 2266 2267  1   
1851 2266 2268  1   
1852 2266 2269  1   
1853 2270 2271  1   
1854 2271 2272  1   
1855 2271 2273  1   
1856 2271 2274  1   
1857 2275 2276  1   
1858 2276 2277  1   
1859 2276 2278  1   
1860 2276 2279  1   
1861 2280 2281  1   
1862 2281 2282  1   
1863 2281 2283  1   
1864 2281 2284  1   
1865 2285 2286  1   
1866 2286 2287  1   
1867 2286 2288  1   
1868 2286 2289  1   
1869 2290 2291  1   
1870 2291 2292  1   
1871 2291 2293  1   
1872 2291 2294  1   
1873 2295 2296  1   
1874 2296 2297  1   
1875 2296 2298  1   
1876 2296 2299  1   
1877 2300 2301  1   
1878 2301 2302  1   
1879 2301 2303  1   
1880 2301 2304  1   
1881 2305 2306  1   
1882 2306 2307  1   
1883 2306 2308  1   
1884 2306 2309  1   
1885 2310 2311  1   
1886 2311 2312  1   
1887 2311 2313  1   
1888 2311 2314  1   
1889 2315 2316  1   
1890 2316 2317  1   
1891 2316 2318  1   
1892 2316 2319  1   
1893 2320 2321  1   
1894 2321 2322  1   
1895 2321 2323  1   
1896 2321 2324  1   
1897 2325 2326  1   
1898 2326 2327  1   
1899 2326 2328  1   
1900 2326 2329  1   
1901 2330 2331  1   
1902 2331 2332  1   
1903 2331 2333  1   
1904 2331 2334  1   
1905 2335 2336  1   
1906 2336 2337  1   
1907 2336 2338  1   
1908 2336 2339  1   
1909 2340 2341  1   
1910 2341 2342  1   
1911 2341 2343  1   
1912 2341 2344  1   
1913 2345 2346  1   
1914 2346 2347  1   
1915 2346 2348  1   
1916 2346 2349  1   
1917 2350 2351  1   
1918 2351 2352  1   
1919 2351 2353  1   
1920 2351 2354  1   
1921 2355 2356  1   
1922 2356 2357  1   
1923 2356 2358  1   
1924 2356 2359  1   
1925 2360 2361  1   
1926 2361 2362  1   
1927 2361 2363  1   
1928 2361 2364  1   
1929 2365 2366  1   
1930 2366 2367  1   
1931 2366 2368  1   
1932 2366 2369  1   
1933 2370 2371  1   
1934 2371 2372  1   
1935 2371 2373  1   
1936 2371 2374  1   
1937 2375 2376  1   
1938 2376 2377  1   
1939 2376 2378  1   
1940 2376 2379  1   
1941 2380 2381  1   
1942 2381 2382  1   
1943 2381 2383  1   
1944 2381 2384  1   
1945 2385 2386  1   
1946 2386 2387  1   
1947 2386 2388  1   
1948 2386 2389  1   
1949 2390 2391  1   
1950 2391 2392  1   
1951 2391 2393  1   
1952 2391 2394  1   
1953 2395 2396  1   
1954 2396 2397  1   
1955 2396 2398  1   
1956 2396 2399  1   
1957 2400 2401  1   
1958 2401 2402  1   
1959 2401 2403  1   
1960 2401 2404  1   
1961 2405 2406  1   
1962 2406 2407  1   
1963 2406 2408  1   
1964 2406 2409  1   
1965 2410 2411  1   
1966 2411 2412  1   
1967 2411 2413  1   
1968 2411 2414  1   
1969 2415 2416  1   
1970 2416 2417  1   
1971 2416 2418  1   
1972 2416 2419  1   
1973 2420 2421  1   
1974 2421 2422  1   
1975 2421 2423  1   
1976 2421 2424  1   
1977 2425 2426  1   
1978 2426 2427  1   
1979 2426 2428  1   
1980 2426 2429  1   
1981 2430 2431  1   
1982 2431 2432  1   
1983 2431 2433  1   
1984 2431 2434  1   
1985 2435 2436  1   
1986 2436 2437  1   
1987 2436 2438  1   
1988 2436 2439  1   
1989 2440 2441  1   
1990 2441 2442  1   
1991 2441 2443  1   
1992 2441 2444  1   
1993 2445 2446  1   
1994 2446 2447  1   
1995 2446 2448  1   
1996 2446 2449  1   
1997 2450 2451  1   
1998 2451 2452  1   
1999 2451 2453  1   
2000 2451 2454  1   
2001 2455 2456  1   
2002 2456 2457  1   
2003 2456 2458  1   
2004 2456 2459  1   
2005 2460 2461  1   
2006 2461 2462  1   
2007 2461 2463  1   
2008 2461 2464  1   
2009 2465 2466  1   
2010 2466 2467  1   
2011 2466 2468  1   
2012 2466 2469  1   
2013 2470 2471  1   
2014 2471 2472  1   
2015 2471 2473  1   
2016 2471 2474  1   
2017 2475 2476  1   
2018 2476 2477  1   
2019 2476 2478  1   
2020 2476 2479  1   
2021 2480 2481  1   
2022 2481 2482  1   
2023 2481 2483  1   
2024 2481 2484  1   
2025 2485 2486  1   
2026 2486 2487  1   
2027 2486 2488  1   
2028 2486 2489  1   
2029 2490 2491  1   
2030 2491 2492  1   
2031 2491 2493  1   
2032 2491 2494  1   
2033 2495 2496  1   
2034 2496 2497  1   
2035 2496 2498  1   
2036 2496 2499  1   
2037 2500 2501  1   
2038 2501 2502  1   
2039 2501 2503  1   
2040 2501 2504  1   
2041 2505 2506  1   
2042 2506 2507  1   
2043 2506 2508  1   
2044 2506 2509  1   
2045 2510 2511  1   
2046 2511 2512  1   
2047 2511 2513  1   
2048 2511 2514  1   
2049 2515 2516  1   
2050 2516 2517  1   
2051 2516 2518  1   
2052 2516 2519  1   
2053 2520 2521  1   
2054 2521 2522  1   
2055 2521 2523  1   
2056 2521 2524  1   
2057 2525 2526  1   
2058 2526 2527  1   
2059 2526 2528  1   
2060 2526 2529  1   
2061 2530 2531  1   
2062 2531 2532  1   
2063 2531 2533  1   
2064 2531 2534  1   
2065 2535 2536  1   
2066 2536 2537  1   
2067 2536 2538  1   
2068 2536 2539  1   
2069 2540 2541  1   
2070 2541 2542  1   
2071 2541 2543  1   
2072 2541 2544  1   
2073 2545 2546  1   
2074 2546 2547  1   
2075 2546 2548  1   
2076 2546 2549  1   
2077 2550 2551  1   
2078 2551 2552  1   
2079 2551 2553  1   
2080 2551 2554  1   
2081 2555 2556  1   
2082 2556 2557  1   
2083 2556 2558  1   
2084 2556 2559  1   
2085 2560 2561  1   
2086 2561 2562  1   
2087 2561 2563  1   
2088 2561 2564  1   
2089 2565 2566  1   
2090 2566 2567  1   
2091 2566 2568  1   
2092 2566 2569  1   
2093 2570 2571  1   
2094 2571 2572  1   
2095 2571 2573  1   
2096 2571 2574  1   
2097 2575 2576  1   
2098 2576 2577  1   
2099 2576 2578  1   
2100 2576 2579  1   
2101 2580 2581  1   
2102 2581 2582  1   
2103 2581 2583  1   
2104 2581 2584  1   
2105 2585 2586  1   
2106 2586 2587  1   
2107 2586 2588  1   
2108 2586 2589  1   
2109 2590 2591  1   
2110 2591 2592  1   
2111 2591 2593  1   
2112 2591 2594  1   
2113 2595 2596  1   
2114 2596 2597  1   
2115 2596 2598  1   
2116 2596 2599  1   
2117 2600 2601  1   
2118 2601 2602  1   
2119 2601 2603  1   
2120 2601 2604  1   
2121 2605 2606  1   
2122 2606 2607  1   
2123 2606 2608  1   
2124 2606 2609  1   
2125 2610 2611  1   
2126 2611 2612  1   
2127 2611 2613  1   
2128 2611 2614  1   
2129 2615 2616  1   
2130 2616 2617  1   
2131 2616 2618  1   
2132 2616 2619  1   
2133 2620 2621  1   
2134 2621 2622  1   
2135 2621 2623  1   
2136 2621 2624  1   
2137 2625 2626  1   
2138 2626 2627  1   
2139 2626 2628  1   
2140 2626 2629  1   
2141 2630 2631  1   
2142 2631 2632  1   
2143 2631 2633  1   
2144 2631 2634  1   
2145 2635 2636  1   
2146 2636 2637  1   
2147 2636 2638  1   
2148 2636 2639  1   
2149 2640 2641  1   
2150 2641 2642  1   
2151 2641 2643  1   
2152 2641 2644  1   
2153 2645 2646  1   
2154 2646 2647  1   
2155 2646 2648  1   
2156 2646 2649  1   
2157 2650 2651  1   
2158 2651 2652  1   
2159 2651 2653  1   
2160 2651 2654  1   
2161 2655 2656  1   
2162 2656 2657  1   
2163 2656 2658  1   
2164 2656 2659  1   
2165 2660 2661  1   
2166 2661 2662  1   
2167 2661 2663  1   
2168 2661 2664  1   
2169 2665 2666  1   
2170 2666 2667  1   
2171 2666 2668  1   
2172 2666 2669  1   
2173 2670 2671  1   
2174 2671 2672  1   
2175 2671 2673  1   
2176 2671 2674  1   
2177 2675 2676  1   
2178 2676 2677  1   
2179 2676 2678  1   
2180 2676 2679  1   
2181 2680 2681  1   
2182 2681 2682  1   
2183 2681 2683  1   
2184 2681 2684  1   
2185 2685 2686  1   
2186 2686 2687  1   
2187 2686 2688  1   
2188 2686 2689  1   
2189 2690 2691  1   
2190 2691 2692  1   
2191 2691 2693  1   
2192 2691 2694  1   
2193 2695 2696  1   
2194 2696 2697  1   
2195 2696 2698  1   
2196 2696 2699  1   
2197 2700 2701  1   
2198 2701 2702  1   
2199 2701 2703  1   
2200 2701 2704  1   
2201 2705 2706  1   
2202 2706 2707  1   
2203 2706 2708  1   
2204 2706 2709  1   
2205 2710 2711  1   
2206 2711 2712  1   
2207 2711 2713  1   
2208 2711 2714  1   
2209 2715 2716  1   
2210 2716 2717  1   
2211 2716 2718  1   
2212 2716 2719  1   
2213 2720 2721  1   
2214 2721 2722  1   
2215 2721 2723  1   
2216 2721 2724  1   
2217 2725 2726  1   
2218 2726 2727  1   
2219 2726 2728  1   
2220 2726 2729  1   
2221 2730 2731  1   
2222 2731 2732  1   
2223 2731 2733  1   
2224 2731 2734  1   
2225 2735 2736  1   
2226 2736 2737  1   
2227 2736 2738  1   
2228 2736 2739  1   
2229 2740 2741  1   
2230 2741 2742  1   
2231 2741 2743  1   
2232 2741 2744  1   
2233 2745 2746  1   
2234 2746 2747  1   
2235 2746 2748  1   
2236 2746 2749  1   
2237 2750 2751  1   
2238 2751 2752  1   
2239 2751 2753  1   
2240 2751 2754  1   
2241 2755 2756  1   
2242 2756 2757  1   
2243 2756 2758  1   
2244 2756 2759  1   
2245 2760 2761  1   
2246 2761 2762  1   
2247 2761 2763  1   
2248 2761 2764  1   
2249 2765 2766  1   
2250 2766 2767  1   
2251 2766 2768  1   
2252 2766 2769  1   
2253 2770 2771  1   
2254 2771 2772  1   
2255 2771 2773  1   
2256 2771 2774  1   
2257 2775 2776  1   
2258 2776 2777  1   
2259 2776 2778  1   
2260 2776 2779  1   
2261 2780 2781  1   
2262 2781 2782  1   
2263 2781 2783  1   
2264 2781 2784  1   
2265 2785 2786  1   
2266 2786 2787  1   
2267 2786 2788  1   
2268 2786 2789  1   
2269 2790 2791  1   
2270 2791 2792  1   
2271 2791 2793  1   
2272 2791 2794  1   
2273 2795 2796  1   
2274 2796 2797  1   
2275 2796 2798  1   
2276 2796 2799  1   
2277 2800 2801  1   
2278 2801 2802  1   
2279 2801 2803  1   
2280 2801 2804  1   
2281 2805 2806  1   
2282 2806 2807  1   
2283 2806 2808  1   
2284 2806 2809  1   
2285 2810 2811  1   
2286 2811 2812  1   
2287 2811 2813  1   
2288 2811 2814  1   
@<TRIPOS>SUBSTRUCTURE
  1 ****   35 GROUP 4 Q1 **** 0
  2 CCL4  166 GROUP 4 Q2 **** 0
  3 CCL4  171 GROUP 4 Q2 **** 0
  4 CCL4  176 GROUP 4 Q2 **** 0
  5 CCL4  181 GROUP 4 Q2 **** 0
  6 CCL4  186 GROUP 4 Q2 **** 0
  7 CCL4  191 GROUP 4 Q2 **** 0
  8 CCL4  196 GROUP 4 Q2 **** 0
  9 CCL4  201 GROUP 4 Q2 **** 0
 10 CCL4  206 GROUP 4 Q2 **** 0
 11 CCL4  211 GROUP 4 Q2 **** 0
 12 CCL4  216 GROUP 4 Q2 **** 0
 13 CCL4  221 GROUP 4 Q2 **** 0
 14 CCL4  226 GROUP 4 Q2 **** 0
 15 CCL4  231 GROUP 4 Q2 **** 0
 16 CCL4  236 GROUP 4 Q2 **** 0
 17 CCL4  241 GROUP 4 Q2 **** 0
 18 CCL4  246 GROUP 4 Q2 **** 0
 19 CCL4  251 GROUP 4 Q2 **** 0
 20 CCL4  256 GROUP 4 Q2 **** 0
 21 CCL4  261 GROUP 4 Q2 **** 0
 22 CCL4  266 GROUP 4 Q2 **** 0
 23 CCL4  271 GROUP 4 Q2 **** 0
 24 CCL4  276 GROUP 4 Q2 **** 0
 25 CCL4  281 GROUP 4 Q2 **** 0
 26 CCL4  286 GROUP 4 Q2 **** 0
 27 CCL4  291 GROUP 4 Q2 **** 0
 28 CCL4  296 GROUP 4 Q2 **** 0
 29 CCL4  301 GROUP 4 Q2 **** 0
 30 CCL4  306 GROUP 4 Q2 **** 0
 31 CCL4  311 GROUP 4 Q2 **** 0
 32 CCL4  316 GROUP 4 Q2 **** 0
 33 CCL4  321 GROUP 4 Q2 **** 0
 34 CCL4  326 GROUP 4 Q2 **** 0
 35 CCL4  331 GROUP 4 Q2 **** 0
 36 CCL4  336 GROUP 4 Q2 **** 0
 37 CCL4  341 GROUP 4 Q2 **** 0
 38 CCL4  346 GROUP 4 Q2 **** 0
 39 CCL4  351 GROUP 4 Q2 **** 0
 40 CCL4  356 GROUP 4 Q2 **** 0
 41 CCL4  361 GROUP 4 Q2 **** 0
 42 CCL4  366 GROUP 4 Q2 **** 0
 43 CCL4  371 GROUP 4 Q2 **** 0
 44 CCL4  376 GROUP 4 Q2 **** 0
 45 CCL4  381 GROUP 4 Q2 **** 0
 46 CCL4  386 GROUP 4 Q2 **** 0
 47 CCL4  391 GROUP 4 Q2 **** 0
 48 CCL4  396 GROUP 4 Q2 **** 0
 49 CCL4  401 GROUP 4 Q2 **** 0
 50 CCL4  406 GROUP 4 Q2 **** 0
 51 CCL4  411 GROUP 4 Q2 **** 0
 52 CCL4  416 GROUP 4 Q2 **** 0
 53 CCL4  421 GROUP 4 Q2 **** 0
 54 CCL4  426 GROUP 4 Q2 **** 0
 55 CCL4  431 GROUP 4 Q2 **** 0
 56 CCL4  436 GROUP 4 Q2 **** 0
 57 CCL4  441 GROUP 4 Q2 **** 0
 58 CCL4  446 GROUP 4 Q2 **** 0
 59 CCL4  451 GROUP 4 Q2 **** 0
 60 CCL4  456 GROUP 4 Q2 **** 0
 61 CCL4  461 GROUP 4 Q2 **** 0
 62 CCL4  466 GROUP 4 Q2 **** 0
 63 CCL4  471 GROUP 4 Q2 **** 0
 64 CCL4  476 GROUP 4 Q2 **** 0
 65 CCL4  481 GROUP 4 Q2 **** 0
 66 CCL4  486 GROUP 4 Q2 **** 0
 67 CCL4  491 GROUP 4 Q2 **** 0
 68 CCL4  496 GROUP 4 Q2 **** 0
 69 CCL4  501 GROUP 4 Q2 **** 0
 70 CCL4  506 GROUP 4 Q2 **** 0
 71 CCL4  511 GROUP 4 Q2 **** 0
 72 CCL4  516 GROUP 4 Q2 **** 0
 73 CCL4  521 GROUP 4 Q2 **** 0
 74 CCL4  526 GROUP 4 Q2 **** 0
 75 CCL4  531 GROUP 4 Q2 **** 0
 76 CCL4  536 GROUP 4 Q2 **** 0
 77 CCL4  541 GROUP 4 Q2 **** 0
 78 CCL4  546 GROUP 4 Q2 **** 0
 79 CCL4  551 GROUP 4 Q2 **** 0
 80 CCL4  556 GROUP 4 Q2 **** 0
 81 CCL4  561 GROUP 4 Q2 **** 0
 82 CCL4  566 GROUP 4 Q2 **** 0
 83 CCL4  571 GROUP 4 Q2 **** 0
 84 CCL4  576 GROUP 4 Q2 **** 0
 85 CCL4  581 GROUP 4 Q2 **** 0
 86 CCL4  586 GROUP 4 Q2 **** 0
 87 CCL4  591 GROUP 4 Q2 **** 0
 88 CCL4  596 GROUP 4 Q2 **** 0
 89 CCL4  601 GROUP 4 Q2 **** 0
 90 CCL4  606 GROUP 4 Q2 **** 0
 91 CCL4  611 GROUP 4 Q2 **** 0
 92 CCL4  616 GROUP 4 Q2 **** 0
 93 CCL4  621 GROUP 4 Q2 **** 0
 94 CCL4  626 GROUP 4 Q2 **** 0
 95 CCL4  631 GROUP 4 Q2 **** 0
 96 CCL4  636 GROUP 4 Q2 **** 0
 97 CCL4  641 GROUP 4 Q2 **** 0
 98 CCL4  646 GROUP 4 Q2 **** 0
 99 CCL4  651 GROUP 4 Q2 **** 0
100 CCL4  656 GROUP 4 Q2 **** 0
101 CCL4  661 GROUP 4 Q2 **** 0
102 CCL4  666 GROUP 4 Q2 **** 0
103 CCL4  671 GROUP 4 Q2 **** 0
104 CCL4  676 GROUP 4 Q2 **** 0
105 CCL4  681 GROUP 4 Q2 **** 0
106 CCL4  686 GROUP 4 Q2 **** 0
107 CCL4  691 GROUP 4 Q2 **** 0
108 CCL4  696 GROUP 4 Q2 **** 0
109 CCL4  701 GROUP 4 Q2 **** 0
110 CCL4  706 GROUP 4 Q2 **** 0
111 CCL4  711 GROUP 4 Q2 **** 0
112 CCL4  716 GROUP 4 Q2 **** 0
113 CCL4  721 GROUP 4 Q2 **** 0
114 CCL4  726 GROUP 4 Q2 **** 0
115 CCL4  731 GROUP 4 Q2 **** 0
116 CCL4  736 GROUP 4 Q2 **** 0
117 CCL4  741 GROUP 4 Q2 **** 0
118 CCL4  746 GROUP 4 Q2 **** 0
119 CCL4  751 GROUP 4 Q2 **** 0
120 CCL4  756 GROUP 4 Q2 **** 0
121 CCL4  761 GROUP 4 Q2 **** 0
122 CCL4  766 GROUP 4 Q2 **** 0
123 CCL4  771 GROUP 4 Q2 **** 0
124 CCL4  776 GROUP 4 Q2 **** 0
125 CCL4  781 GROUP 4 Q2 **** 0
126 CCL4  786 GROUP 4 Q2 **** 0
127 CCL4  791 GROUP 4 Q2 **** 0
128 CCL4  796 GROUP 4 Q2 **** 0
129 CCL4  801 GROUP 4 Q2 **** 0
130 CCL4  806 GROUP 4 Q2 **** 0
131 CCL4  811 GROUP 4 Q2 **** 0
132 CCL4  816 GROUP 4 Q2 **** 0
133 CCL4  821 GROUP 4 Q2 **** 0
134 CCL4  826 GROUP 4 Q2 **** 0
135 CCL4  831 GROUP 4 Q2 **** 0
136 CCL4  836 GROUP 4 Q2 **** 0
137 CCL4  841 GROUP 4 Q2 **** 0
138 CCL4  846 GROUP 4 Q2 **** 0
139 CCL4  851 GROUP 4 Q2 **** 0
140 CCL4  856 GROUP 4 Q2 **** 0
141 CCL4  861 GROUP 4 Q2 **** 0
142 CCL4  866 GROUP 4 Q2 **** 0
143 CCL4  871 GROUP 4 Q2 **** 0
144 CCL4  876 GROUP 4 Q2 **** 0
145 CCL4  881 GROUP 4 Q2 **** 0
146 CCL4  886 GROUP 4 Q2 **** 0
147 CCL4  891 GROUP 4 Q2 **** 0
148 CCL4  896 GROUP 4 Q2 **** 0
149 CCL4  901 GROUP 4 Q2 **** 0
150 CCL4  906 GROUP 4 Q2 **** 0
151 CCL4  911 GROUP 4 Q2 **** 0
152 CCL4  916 GROUP 4 Q2 **** 0
153 CCL4  921 GROUP 4 Q2 **** 0
154 CCL4  926 GROUP 4 Q2 **** 0
155 CCL4  931 GROUP 4 Q2 **** 0
156 CCL4  936 GROUP 4 Q2 **** 0
157 CCL4  941 GROUP 4 Q2 **** 0
158 CCL4  946 GROUP 4 Q2 **** 0
159 CCL4  951 GROUP 4 Q2 **** 0
160 CCL4  956 GROUP 4 Q2 **** 0
161 CCL4  961 GROUP 4 Q2 **** 0
162 CCL4  966 GROUP 4 Q2 **** 0
163 CCL4  971 GROUP 4 Q2 **** 0
164 CCL4  976 GROUP 4 Q2 **** 0
165 CCL4  981 GROUP 4 Q2 **** 0
166 CCL4  986 GROUP 4 Q2 **** 0
167 CCL4  991 GROUP 4 Q2 **** 0
168 CCL4  996 GROUP 4 Q2 **** 0
169 CCL4 1001 GROUP 4 Q2 **** 0
170 CCL4 1006 GROUP 4 Q2 **** 0
171 CCL4 1011 GROUP 4 Q2 **** 0
172 CCL4 1016 GROUP 4 Q2 **** 0
173 CCL4 1021 GROUP 4 Q2 **** 0
174 CCL4 1026 GROUP 4 Q2 **** 0
175 CCL4 1031 GROUP 4 Q2 **** 0
176 CCL4 1036 GROUP 4 Q2 **** 0
177 CCL4 1041 GROUP 4 Q2 **** 0
178 CCL4 1046 GROUP 4 Q2 **** 0
179 CCL4 1051 GROUP 4 Q2 **** 0
180 CCL4 1056 GROUP 4 Q2 **** 0
181 CCL4 1061 GROUP 4 Q2 **** 0
182 CCL4 1066 GROUP 4 Q2 **** 0
183 CCL4 1071 GROUP 4 Q2 **** 0
184 CCL4 1076 GROUP 4 Q2 **** 0
185 CCL4 1081 GROUP 4 Q2 **** 0
186 CCL4 1086 GROUP 4 Q2 **** 0
187 CCL4 1091 GROUP 4 Q2 **** 0
188 CCL4 1096 GROUP 4 Q2 **** 0
189 CCL4 1101 GROUP 4 Q2 **** 0
190 CCL4 1106 GROUP 4 Q2 **** 0
191 CCL4 1111 GROUP 4 Q2 **** 0
192 CCL4 1116 GROUP 4 Q2 **** 0
193 CCL4 1121 GROUP 4 Q2 **** 0
194 CCL4 1126 GROUP 4 Q2 **** 0
195 CCL4 1131 GROUP 4 Q2 **** 0
196 CCL4 1136 GROUP 4 Q2 **** 0
197 CCL4 1141 GROUP 4 Q2 **** 0
198 CCL4 1146 GROUP 4 Q2 **** 0
199 CCL4 1151 GROUP 4 Q2 **** 0
200 CCL4 1156 GROUP 4 Q2 **** 0
201 CCL4 1161 GROUP 4 Q2 **** 0
202 CCL4 1166 GROUP 4 Q2 **** 0
203 CCL4 1171 GROUP 4 Q2 **** 0
204 CCL4 1176 GROUP 4 Q2 **** 0
205 CCL4 1181 GROUP 4 Q2 **** 0
206 CCL4 1186 GROUP 4 Q2 **** 0
207 CCL4 1191 GROUP 4 Q2 **** 0
208 CCL4 1196 GROUP 4 Q2 **** 0
209 CCL4 1201 GROUP 4 Q2 **** 0
210 CCL4 1206 GROUP 4 Q2 **** 0
211 CCL4 1211 GROUP 4 Q2 **** 0
212 CCL4 1216 GROUP 4 Q2 **** 0
213 CCL4 1221 GROUP 4 Q2 **** 0
214 CCL4 1226 GROUP 4 Q2 **** 0
215 CCL4 1231 GROUP 4 Q2 **** 0
216 CCL4 1236 GROUP 4 Q2 **** 0
217 CCL4 1241 GROUP 4 Q2 **** 0
218 CCL4 1246 GROUP 4 Q2 **** 0
219 CCL4 1251 GROUP 4 Q2 **** 0
220 CCL4 1256 GROUP 4 Q2 **** 0
221 CCL4 1261 GROUP 4 Q2 **** 0
222 CCL4 1266 GROUP 4 Q2 **** 0
223 CCL4 1271 GROUP 4 Q2 **** 0
224 CCL4 1276 GROUP 4 Q2 **** 0
225 CCL4 1281 GROUP 4 Q2 **** 0
226 CCL4 1286 GROUP 4 Q2 **** 0
227 CCL4 1291 GROUP 4 Q2 **** 0
228 CCL4 1296 GROUP 4 Q2 **** 0
229 CCL4 1301 GROUP 4 Q2 **** 0
230 CCL4 1306 GROUP 4 Q2 **** 0
231 CCL4 1311 GROUP 4 Q2 **** 0
232 CCL4 1316 GROUP 4 Q2 **** 0
233 CCL4 1321 GROUP 4 Q2 **** 0
234 CCL4 1326 GROUP 4 Q2 **** 0
235 CCL4 1331 GROUP 4 Q2 **** 0
236 CCL4 1336 GROUP 4 Q2 **** 0
237 CCL4 1341 GROUP 4 Q2 **** 0
238 CCL4 1346 GROUP 4 Q2 **** 0
239 CCL4 1351 GROUP 4 Q2 **** 0
240 CCL4 1356 GROUP 4 Q2 **** 0
241 CCL4 1361 GROUP 4 Q2 **** 0
242 CCL4 1366 GROUP 4 Q2 **** 0
243 CCL4 1371 GROUP 4 Q2 **** 0
244 CCL4 1376 GROUP 4 Q2 **** 0
245 CCL4 1381 GROUP 4 Q2 **** 0
246 CCL4 1386 GROUP 4 Q2 **** 0
247 CCL4 1391 GROUP 4 Q2 **** 0
248 CCL4 1396 GROUP 4 Q2 **** 0
249 CCL4 1401 GROUP 4 Q2 **** 0
250 CCL4 1406 GROUP 4 Q2 **** 0
251 CCL4 1411 GROUP 4 Q2 **** 0
252 CCL4 1416 GROUP 4 Q2 **** 0
253 CCL4 1421 GROUP 4 Q2 **** 0
254 CCL4 1426 GROUP 4 Q2 **** 0
255 CCL4 1431 GROUP 4 Q2 **** 0
256 CCL4 1436 GROUP 4 Q2 **** 0
257 CCL4 1441 GROUP 4 Q2 **** 0
258 CCL4 1446 GROUP 4 Q2 **** 0
259 CCL4 1451 GROUP 4 Q2 **** 0
260 CCL4 1456 GROUP 4 Q2 **** 0
261 CCL4 1461 GROUP 4 Q2 **** 0
262 CCL4 1466 GROUP 4 Q2 **** 0
263 CCL4 1471 GROUP 4 Q2 **** 0
264 CCL4 1476 GROUP 4 Q2 **** 0
265 CCL4 1481 GROUP 4 Q2 **** 0
266 CCL4 1486 GROUP 4 Q2 **** 0
267 CCL4 1491 GROUP 4 Q2 **** 0
268 CCL4 1496 GROUP 4 Q2 **** 0
269 CCL4 1501 GROUP 4 Q2 **** 0
270 CCL4 1506 GROUP 4 Q2 **** 0
271 CCL4 1511 GROUP 4 Q2 **** 0
272 CCL4 1516 GROUP 4 Q2 **** 0
273 CCL4 1521 GROUP 4 Q2 **** 0
274 CCL4 1526 GROUP 4 Q2 **** 0
275 CCL4 1531 GROUP 4 Q2 **** 0
276 CCL4 1536 GROUP 4 Q2 **** 0
277 CCL4 1541 GROUP 4 Q2 **** 0
278 CCL4 1546 GROUP 4 Q2 **** 0
279 CCL4 1551 GROUP 4 Q2 **** 0
280 CCL4 1556 GROUP 4 Q2 **** 0
281 CCL4 1561 GROUP 4 Q2 **** 0
282 CCL4 1566 GROUP 4 Q2 **** 0
283 CCL4 1571 GROUP 4 Q2 **** 0
284 CCL4 1576 GROUP 4 Q2 **** 0
285 CCL4 1581 GROUP 4 Q2 **** 0
286 CCL4 1586 GROUP 4 Q2 **** 0
287 CCL4 1591 GROUP 4 Q2 **** 0
288 CCL4 1596 GROUP 4 Q2 **** 0
289 CCL4 1601 GROUP 4 Q2 **** 0
290 CCL4 1606 GROUP 4 Q2 **** 0
291 CCL4 1611 GROUP 4 Q2 **** 0
292 CCL4 1616 GROUP 4 Q2 **** 0
293 CCL4 1621 GROUP 4 Q2 **** 0
294 CCL4 1626 GROUP 4 Q2 **** 0
295 CCL4 1631 GROUP 4 Q2 **** 0
296 CCL4 1636 GROUP 4 Q2 **** 0
297 CCL4 1641 GROUP 4 Q2 **** 0
298 CCL4 1646 GROUP 4 Q2 **** 0
299 CCL4 1651 GROUP 4 Q2 **** 0
300 CCL4 1656 GROUP 4 Q2 **** 0
301 CCL4 1661 GROUP 4 Q2 **** 0
302 CCL4 1666 GROUP 4 Q2 **** 0
303 CCL4 1671 GROUP 4 Q2 **** 0
304 CCL4 1676 GROUP 4 Q2 **** 0
305 CCL4 1681 GROUP 4 Q2 **** 0
306 CCL4 1686 GROUP 4 Q2 **** 0
307 CCL4 1691 GROUP 4 Q2 **** 0
308 CCL4 1696 GROUP 4 Q2 **** 0
309 CCL4 1701 GROUP 4 Q2 **** 0
310 CCL4 1706 GROUP 4 Q2 **** 0
311 CCL4 1711 GROUP 4 Q2 **** 0
312 CCL4 1716 GROUP 4 Q2 **** 0
313 CCL4 1721 GROUP 4 Q2 **** 0
314 CCL4 1726 GROUP 4 Q2 **** 0
315 CCL4 1731 GROUP 4 Q2 **** 0
316 CCL4 1736 GROUP 4 Q2 **** 0
317 CCL4 1741 GROUP 4 Q2 **** 0
318 CCL4 1746 GROUP 4 Q2 **** 0
319 CCL4 1751 GROUP 4 Q2 **** 0
320 CCL4 1756 GROUP 4 Q2 **** 0
321 CCL4 1761 GROUP 4 Q2 **** 0
322 CCL4 1766 GROUP 4 Q2 **** 0
323 CCL4 1771 GROUP 4 Q2 **** 0
324 CCL4 1776 GROUP 4 Q2 **** 0
325 CCL4 1781 GROUP 4 Q2 **** 0
326 CCL4 1786 GROUP 4 Q2 **** 0
327 CCL4 1791 GROUP 4 Q2 **** 0
328 CCL4 1796 GROUP 4 Q2 **** 0
329 CCL4 1801 GROUP 4 Q2 **** 0
330 CCL4 1806 GROUP 4 Q2 **** 0
331 CCL4 1811 GROUP 4 Q2 **** 0
332 CCL4 1816 GROUP 4 Q2 **** 0
333 CCL4 1821 GROUP 4 Q2 **** 0
334 CCL4 1826 GROUP 4 Q2 **** 0
335 CCL4 1831 GROUP 4 Q2 **** 0
336 CCL4 1836 GROUP 4 Q2 **** 0
337 CCL4 1841 GROUP 4 Q2 **** 0
338 CCL4 1846 GROUP 4 Q2 **** 0
339 CCL4 1851 GROUP 4 Q2 **** 0
340 CCL4 1856 GROUP 4 Q2 **** 0
341 CCL4 1861 GROUP 4 Q2 **** 0
342 CCL4 1866 GROUP 4 Q2 **** 0
343 CCL4 1871 GROUP 4 Q2 **** 0
344 CCL4 1876 GROUP 4 Q2 **** 0
345 CCL4 1881 GROUP 4 Q2 **** 0
346 CCL4 1886 GROUP 4 Q2 **** 0
347 CCL4 1891 GROUP 4 Q2 **** 0
348 CCL4 1896 GROUP 4 Q2 **** 0
349 CCL4 1901 GROUP 4 Q2 **** 0
350 CCL4 1906 GROUP 4 Q2 **** 0
351 CCL4 1911 GROUP 4 Q2 **** 0
352 CCL4 1916 GROUP 4 Q2 **** 0
353 CCL4 1921 GROUP 4 Q2 **** 0
354 CCL4 1926 GROUP 4 Q2 **** 0
355 CCL4 1931 GROUP 4 Q2 **** 0
356 CCL4 1936 GROUP 4 Q2 **** 0
357 CCL4 1941 GROUP 4 Q2 **** 0
358 CCL4 1946 GROUP 4 Q2 **** 0
359 CCL4 1951 GROUP 4 Q2 **** 0
360 CCL4 1956 GROUP 4 Q2 **** 0
361 CCL4 1961 GROUP 4 Q2 **** 0
362 CCL4 1966 GROUP 4 Q2 **** 0
363 CCL4 1971 GROUP 4 Q2 **** 0
364 CCL4 1976 GROUP 4 Q2 **** 0
365 CCL4 1981 GROUP 4 Q2 **** 0
366 CCL4 1986 GROUP 4 Q2 **** 0
367 CCL4 1991 GROUP 4 Q2 **** 0
368 CCL4 1996 GROUP 4 Q2 **** 0
369 CCL4 2001 GROUP 4 Q2 **** 0
370 CCL4 2006 GROUP 4 Q2 **** 0
371 CCL4 2011 GROUP 4 Q2 **** 0
372 CCL4 2016 GROUP 4 Q2 **** 0
373 CCL4 2021 GROUP 4 Q2 **** 0
374 CCL4 2026 GROUP 4 Q2 **** 0
375 CCL4 2031 GROUP 4 Q2 **** 0
376 CCL4 2036 GROUP 4 Q2 **** 0
377 CCL4 2041 GROUP 4 Q2 **** 0
378 CCL4 2046 GROUP 4 Q2 **** 0
379 CCL4 2051 GROUP 4 Q2 **** 0
380 CCL4 2056 GROUP 4 Q2 **** 0
381 CCL4 2061 GROUP 4 Q2 **** 0
382 CCL4 2066 GROUP 4 Q2 **** 0
383 CCL4 2071 GROUP 4 Q2 **** 0
384 CCL4 2076 GROUP 4 Q2 **** 0
385 CCL4 2081 GROUP 4 Q2 **** 0
386 CCL4 2086 GROUP 4 Q2 **** 0
387 CCL4 2091 GROUP 4 Q2 **** 0
388 CCL4 2096 GROUP 4 Q2 **** 0
389 CCL4 2101 GROUP 4 Q2 **** 0
390 CCL4 2106 GROUP 4 Q2 **** 0
391 CCL4 2111 GROUP 4 Q2 **** 0
392 CCL4 2116 GROUP 4 Q2 **** 0
393 CCL4 2121 GROUP 4 Q2 **** 0
394 CCL4 2126 GROUP 4 Q2 **** 0
395 CCL4 2131 GROUP 4 Q2 **** 0
396 CCL4 2136 GROUP 4 Q2 **** 0
397 CCL4 2141 GROUP 4 Q2 **** 0
398 CCL4 2146 GROUP 4 Q2 **** 0
399 CCL4 2151 GROUP 4 Q2 **** 0
400 CCL4 2156 GROUP 4 Q2 **** 0
401 CCL4 2161 GROUP 4 Q2 **** 0
402 CCL4 2166 GROUP 4 Q2 **** 0
403 CCL4 2171 GROUP 4 Q2 **** 0
404 CCL4 2176 GROUP 4 Q2 **** 0
405 CCL4 2181 GROUP 4 Q2 **** 0
406 CCL4 2186 GROUP 4 Q2 **** 0
407 CCL4 2191 GROUP 4 Q2 **** 0
408 CCL4 2196 GROUP 4 Q2 **** 0
409 CCL4 2201 GROUP 4 Q2 **** 0
410 CCL4 2206 GROUP 4 Q2 **** 0
411 CCL4 2211 GROUP 4 Q2 **** 0
412 CCL4 2216 GROUP 4 Q2 **** 0
413 CCL4 2221 GROUP 4 Q2 **** 0
414 CCL4 2226 GROUP 4 Q2 **** 0
415 CCL4 2231 GROUP 4 Q2 **** 0
416 CCL4 2236 GROUP 4 Q2 **** 0
417 CCL4 2241 GROUP 4 Q2 **** 0
418 CCL4 2246 GROUP 4 Q2 **** 0
419 CCL4 2251 GROUP 4 Q2 **** 0
420 CCL4 2256 GROUP 4 Q2 **** 0
421 CCL4 2261 GROUP 4 Q2 **** 0
422 CCL4 2266 GROUP 4 Q2 **** 0
423 CCL4 2271 GROUP 4 Q2 **** 0
424 CCL4 2276 GROUP 4 Q2 **** 0
425 CCL4 2281 GROUP 4 Q2 **** 0
426 CCL4 2286 GROUP 4 Q2 **** 0
427 CCL4 2291 GROUP 4 Q2 **** 0
428 CCL4 2296 GROUP 4 Q2 **** 0
429 CCL4 2301 GROUP 4 Q2 **** 0
430 CCL4 2306 GROUP 4 Q2 **** 0
431 CCL4 2311 GROUP 4 Q2 **** 0
432 CCL4 2316 GROUP 4 Q2 **** 0
433 CCL4 2321 GROUP 4 Q2 **** 0
434 CCL4 2326 GROUP 4 Q2 **** 0
435 CCL4 2331 GROUP 4 Q2 **** 0
436 CCL4 2336 GROUP 4 Q2 **** 0
437 CCL4 2341 GROUP 4 Q2 **** 0
438 CCL4 2346 GROUP 4 Q2 **** 0
439 CCL4 2351 GROUP 4 Q2 **** 0
440 CCL4 2356 GROUP 4 Q2 **** 0
441 CCL4 2361 GROUP 4 Q2 **** 0
442 CCL4 2366 GROUP 4 Q2 **** 0
443 CCL4 2371 GROUP 4 Q2 **** 0
444 CCL4 2376 GROUP 4 Q2 **** 0
445 CCL4 2381 GROUP 4 Q2 **** 0
446 CCL4 2386 GROUP 4 Q2 **** 0
447 CCL4 2391 GROUP 4 Q2 **** 0
448 CCL4 2396 GROUP 4 Q2 **** 0
449 CCL4 2401 GROUP 4 Q2 **** 0
450 CCL4 2406 GROUP 4 Q2 **** 0
451 CCL4 2411 GROUP 4 Q2 **** 0
452 CCL4 2416 GROUP 4 Q2 **** 0
453 CCL4 2421 GROUP 4 Q2 **** 0
454 CCL4 2426 GROUP 4 Q2 **** 0
455 CCL4 2431 GROUP 4 Q2 **** 0
456 CCL4 2436 GROUP 4 Q2 **** 0
457 CCL4 2441 GROUP 4 Q2 **** 0
458 CCL4 2446 GROUP 4 Q2 **** 0
459 CCL4 2451 GROUP 4 Q2 **** 0
460 CCL4 2456 GROUP 4 Q2 **** 0
461 CCL4 2461 GROUP 4 Q2 **** 0
462 CCL4 2466 GROUP 4 Q2 **** 0
463 CCL4 2471 GROUP 4 Q2 **** 0
464 CCL4 2476 GROUP 4 Q2 **** 0
465 CCL4 2481 GROUP 4 Q2 **** 0
466 CCL4 2486 GROUP 4 Q2 **** 0
467 CCL4 2491 GROUP 4 Q2 **** 0
468 CCL4 2496 GROUP 4 Q2 **** 0
469 CCL4 2501 GROUP 4 Q2 **** 0
470 CCL4 2506 GROUP 4 Q2 **** 0
471 CCL4 2511 GROUP 4 Q2 **** 0
472 CCL4 2516 GROUP 4 Q2 **** 0
473 CCL4 2521 GROUP 4 Q2 **** 0
474 CCL4 2526 GROUP 4 Q2 **** 0
475 CCL4 2531 GROUP 4 Q2 **** 0
476 CCL4 2536 GROUP 4 Q2 **** 0
477 CCL4 2541 GROUP 4 Q2 **** 0
478 CCL4 2546 GROUP 4 Q2 **** 0
479 CCL4 2551 GROUP 4 Q2 **** 0
480 CCL4 2556 GROUP 4 Q2 **** 0
481 CCL4 2561 GROUP 4 Q2 **** 0
482 CCL4 2566 GROUP 4 Q2 **** 0
483 CCL4 2571 GROUP 4 Q2 **** 0
484 CCL4 2576 GROUP 4 Q2 **** 0
485 CCL4 2581 GROUP 4 Q2 **** 0
486 CCL4 2586 GROUP 4 Q2 **** 0
487 CCL4 2591 GROUP 4 Q2 **** 0
488 CCL4 2596 GROUP 4 Q2 **** 0
489 CCL4 2601 GROUP 4 Q2 **** 0
490 CCL4 2606 GROUP 4 Q2 **** 0
491 CCL4 2611 GROUP 4 Q2 **** 0
492 CCL4 2616 GROUP 4 Q2 **** 0
493 CCL4 2621 GROUP 4 Q2 **** 0
494 CCL4 2626 GROUP 4 Q2 **** 0
495 CCL4 2631 GROUP 4 Q2 **** 0
496 CCL4 2636 GROUP 4 Q2 **** 0
497 CCL4 2641 GROUP 4 Q2 **** 0
498 CCL4 2646 GROUP 4 Q2 **** 0
499 CCL4 2651 GROUP 4 Q2 **** 0
500 CCL4 2656 GROUP 4 Q2 **** 0
501 CCL4 2661 GROUP 4 Q2 **** 0
502 CCL4 2666 GROUP 4 Q2 **** 0
503 CCL4 2671 GROUP 4 Q2 **** 0
504 CCL4 2676 GROUP 4 Q2 **** 0
505 CCL4 2681 GROUP 4 Q2 **** 0
506 CCL4 2686 GROUP 4 Q2 **** 0
507 CCL4 2691 GROUP 4 Q2 **** 0
508 CCL4 2696 GROUP 4 Q2 **** 0
509 CCL4 2701 GROUP 4 Q2 **** 0
510 CCL4 2706 GROUP 4 Q2 **** 0
511 CCL4 2711 GROUP 4 Q2 **** 0
512 CCL4 2716 GROUP 4 Q2 **** 0
513 CCL4 2721 GROUP 4 Q2 **** 0
514 CCL4 2726 GROUP 4 Q2 **** 0
515 CCL4 2731 GROUP 4 Q2 **** 0
516 CCL4 2736 GROUP 4 Q2 **** 0
517 CCL4 2741 GROUP 4 Q2 **** 0
518 CCL4 2746 GROUP 4 Q2 **** 0
519 CCL4 2751 GROUP 4 Q2 **** 0
520 CCL4 2756 GROUP 4 Q2 **** 0
521 CCL4 2761 GROUP 4 Q2 **** 0
522 CCL4 2766 GROUP 4 Q2 **** 0
523 CCL4 2771 GROUP 4 Q2 **** 0
524 CCL4 2776 GROUP 4 Q2 **** 0
525 CCL4 2781 GROUP 4 Q2 **** 0
526 CCL4 2786 GROUP 4 Q2 **** 0
527 CCL4 2791 GROUP 4 Q2 **** 0
528 CCL4 2796 GROUP 4 Q2 **** 0
529 CCL4 2801 GROUP 4 Q2 **** 0
530 CCL4 2806 GROUP 4 Q2 **** 0
531 CCL4 2811 GROUP 4 Q2 **** 0

# MOE 2020.09 (io_trps.svl 2020.11)
