@<TRIPOS>MOLECULE
xlinker.****
2351 1918 438 0 0 
SMALL
USER_CHARGES


@<TRIPOS>ATOM
   1 C      -13.0977    -2.2632     6.7368 C.ar    1 <1>   -0.1435 
   2 C      -12.0721    -1.1924     6.3393 C.3     1 <1>    0.4870 
   3 H      -12.5692    -0.4796     5.6960 H       1 <1>    0.0800 
   4 O1     -11.6199    -0.4496     7.5604 O.3     1 <1>   -0.5600 
   5 C      -14.2031    -1.8934     7.5084 C.ar    1 <1>   -0.1500 
   6 H      -14.2996    -0.8894     7.8366 H       1 <1>    0.1500 
   7 C      -15.1780    -2.8259     7.8579 C.ar    1 <1>   -0.1500 
   8 H      -16.0155    -2.5198     8.4392 H       1 <1>    0.1500 
   9 C      -15.0563    -4.1461     7.4393 C.ar    1 <1>   -0.1500 
  10 H      -15.7990    -4.8601     7.7017 H       1 <1>    0.1500 
  11 C      -13.9582    -4.5302     6.6808 C.ar    1 <1>   -0.1500 
  12 H      -13.8546    -5.5365     6.3501 H       1 <1>    0.1500 
  13 C      -12.9870    -3.5978     6.3295 C.ar    1 <1>   -0.1500 
  14 H      -12.1721    -3.9203     5.7288 H       1 <1>    0.1500 
  15 C       -8.5669    -2.7431     4.4228 C.ar    1 <1>    0.0825 
  16 O       -7.4000    -3.1487     3.8375 O.3     1 <1>   -0.1650 
  17 C       -9.5539    -2.1678     3.6266 C.ar    1 <1>   -0.1500 
  18 H       -9.4086    -2.0955     2.5761 H       1 <1>    0.1500 
  19 C      -10.7001    -1.6712     4.2375 C.ar    1 <1>   -0.1500 
  20 H      -11.4559    -1.2182     3.6456 H       1 <1>    0.1500 
  21 C      -10.8523    -1.7583     5.6277 C.ar    1 <1>   -0.1435 
  22 C       -9.8681    -2.3829     6.3979 C.ar    1 <1>   -0.1500 
  23 H      -10.0011    -2.4595     7.4518 H       1 <1>    0.1500 
  24 C       -8.7146    -2.8692     5.8019 C.ar    1 <1>   -0.1500 
  25 H       -7.9458    -3.3025     6.3888 H       1 <1>    0.1500 
  26 C       -3.8184    -1.1463     4.4667 C.ar    1 <1>    0.0825 
  27 O       -2.6503    -0.4859     4.7710 O.3     1 <1>   -0.1650 
  28 C       -3.8114    -2.4296     3.9174 C.ar    1 <1>   -0.1500 
  29 H       -2.8931    -2.9042     3.6714 H       1 <1>    0.1500 
  30 C       -5.0240    -3.0880     3.7203 C.ar    1 <1>   -0.1500 
  31 H       -5.0488    -4.0747     3.3354 H       1 <1>    0.1500 
  32 C       -6.2179    -2.4512     4.0590 C.ar    1 <1>    0.0825 
  33 C       -6.2187    -1.1596     4.6041 C.ar    1 <1>   -0.1500 
  34 H       -7.1304    -0.6848     4.8787 H       1 <1>    0.1500 
  35 C       -5.0088    -0.5045     4.8040 C.ar    1 <1>   -0.1500 
  36 H       -4.9810     0.4721     5.2177 H       1 <1>    0.1500 
  37 C        0.6597     0.7869     2.5722 C.ar    1 <1>   -0.1435 
  38 C        1.7943     1.4384     1.7604 C.3     1 <1>    0.4870 
  39 H        2.4392     1.9760     2.4395 H       1 <1>    0.0800 
  40 O3       1.2426     2.4528     0.7964 O.3     1 <1>   -0.5600 
  41 C       -0.3128    -0.0050     1.9444 C.ar    1 <1>   -0.1500 
  42 H       -0.2208    -0.2153     0.9065 H       1 <1>    0.1500 
  43 C       -1.4073    -0.4953     2.6598 C.ar    1 <1>   -0.1500 
  44 H       -2.1505    -1.0791     2.1764 H       1 <1>    0.1500 
  45 C       -1.5356    -0.1735     4.0108 C.ar    1 <1>    0.0825 
  46 C       -0.5435     0.5484     4.6646 C.ar    1 <1>   -0.1500 
  47 H       -0.6577     0.7540     5.7020 H       1 <1>    0.1500 
  48 C        0.5554     1.0217     3.9481 C.ar    1 <1>   -0.1500 
  49 H        1.3086     1.5758     4.4536 H       1 <1>    0.1500 
  50 C        4.3709    -1.1706    -0.5742 C.ar    1 <1>   -0.1500 
  51 H        5.0068    -1.7988    -1.1488 H       1 <1>    0.1500 
  52 C        4.2599     0.1773    -0.8871 C.ar    1 <1>   -0.1500 
  53 H        4.8012     0.5744    -1.7116 H       1 <1>    0.1500 
  54 C        3.4340     0.9993    -0.1277 C.ar    1 <1>   -0.1500 
  55 H        3.3799     2.0327    -0.3670 H       1 <1>    0.1500 
  56 C        2.6872     0.4852     0.9429 C.ar    1 <1>   -0.1435 
  57 C        2.8065    -0.8743     1.2449 C.ar    1 <1>   -0.1500 
  58 H        2.2720    -1.2963     2.0637 H       1 <1>    0.1500 
  59 C        3.6401    -1.6933     0.4846 C.ar    1 <1>   -0.1500 
  60 H        3.7190    -2.7278     0.7129 H       1 <1>    0.1500 
  61 C      -17.8748     2.2622     2.5189 C.2     1 <1>    0.6590 
  62 C1     -16.4495     1.7327     2.3744 C.3     1 <1>   -0.0990 
  63 H11    -16.0815     2.0745     1.4074 H       1 <1>    0.0800 
  64 H12    -16.4910     0.6472     2.3346 H       1 <1>    0.0800 
  65 C13    -15.4655     2.1660     3.4824 C.3     1 <1>   -0.1600 
  66 H131   -15.5098     3.2476     3.6274 H       1 <1>    0.0800 
  67 C132   -14.0359     1.7811     3.0801 C.3     1 <1>   -0.1600 
  68 H131   -13.8559     2.1623     2.0711 H       1 <1>    0.0800 
  69 H132   -13.9262     0.6946     3.0641 H       1 <1>    0.0800 
  70 C133   -12.9981     2.3990     4.0306 C.3     1 <1>   -0.1600 
  71 C131   -11.5523     1.9825     3.7119 C.3     1 <1>   -0.1600 
  72 H131   -10.8742     2.6245     4.2793 H       1 <1>    0.0800 
  73 C132   -11.2108     2.0778     2.2177 C.3     1 <1>   -0.1600 
  74 H131   -11.4964     3.0650     1.8509 H       1 <1>    0.0800 
  75 H132   -11.7802     1.3242     1.6657 H       1 <1>    0.0800 
  76 C133    -9.7336     1.8446     1.8859 C.3     1 <1>   -0.0218 
  77 H131    -9.1320     2.5727     2.4136 H       1 <1>    0.0800 
  78 C132    -9.4796     1.9372     0.3931 C.2     1 <1>   -0.2882 
  79 H132   -10.3621     2.0116    -0.2051 H       1 <1>    0.1500 
  80 C133    -8.2629     1.9398    -0.1724 C.2     1 <1>   -0.2882 
  81 H131    -8.1662     1.9871    -1.2300 H       1 <1>    0.1500 
  82 C132    -6.9577     1.8127     0.6020 C.3     1 <1>   -0.0218 
  83 C131    -5.7853     2.6109    -0.0065 C.3     1 <1>   -0.1600 
  84 H131    -5.6417     2.2792    -1.0366 H       1 <1>    0.0800 
  85 C132    -4.4557     2.4460     0.7538 C.3     1 <1>   -0.1600 
  86 H131    -4.1820     1.3865     0.7309 H       1 <1>    0.0800 
  87 H132    -4.6013     2.7488     1.7924 H       1 <1>    0.0800 
  88 C133    -3.2928     3.2757     0.1682 C.3     1 <1>   -0.1600 
  89 H131    -3.1924     3.0321    -0.8939 H       1 <1>    0.0800 
  90 C132    -1.9736     2.9193     0.8864 C.3     1 <1>   -0.1600 
  91 H131    -1.7160     1.8848     0.6551 H       1 <1>    0.0800 
  92 H132    -2.1093     2.9961     1.9690 H       1 <1>    0.0800 
  93 C133    -0.8020     3.8239     0.4569 C.3     1 <1>   -0.1600 
  94 H131    -0.5828     3.6633    -0.5993 H       1 <1>    0.0800 
  95 C132     0.4909     3.6178     1.2799 C.3     1 <1>    0.2000 
  96 H132     0.2323     3.4766     2.3301 H       1 <1>    0.0800 
  97 C133     1.4029     4.8395     1.1480 C.3     1 <1>   -0.2400 
  98 H131     1.6996     4.9577     0.1052 H       1 <1>    0.0800 
  99 H132     2.2990     4.6868     1.7516 H       1 <1>    0.0800 
 100 H133     0.8871     5.7432     1.4838 H       1 <1>    0.0800 
 101 H133    -1.1248     4.8563     0.5846 H       1 <1>    0.0800 
 102 H133    -3.4951     4.3481     0.2723 H       1 <1>    0.0800 
 103 H133    -6.0668     3.6669    -0.0265 H       1 <1>    0.0800 
 104 H132    -6.7086     0.7608     0.6640 H       1 <1>    0.0800 
 105 H133    -7.0919     2.1323     1.6258 H       1 <1>    0.0800 
 106 H133    -9.4250     0.8728     2.2508 H       1 <1>    0.0800 
 107 H133   -11.3878     0.9592     4.0455 H       1 <1>    0.0800 
 108 H132   -13.2297     2.1007     5.0583 H       1 <1>    0.0800 
 109 H133   -13.0622     3.4884     3.9617 H       1 <1>    0.0800 
 110 H133   -15.7292     1.6819     4.4273 H       1 <1>    0.0800 
 111 O2     -18.8922     1.5821     2.3443 O.2     1 <1>   -0.5700 
 112 O3     -17.9327     3.6096     2.7687 O.3     1 <1>   -0.6500 
 113 H3     -17.0166     3.9032     2.9167 H       1 <1>    0.5000 
 114 C        0.8959    11.2799    -0.3267 C.2     1 <1>    0.6590 
 115 C1      -0.0780    10.1206    -0.1724 C.3     1 <1>   -0.0990 
 116 H11      0.4428     9.1966    -0.4249 H       1 <1>    0.0800 
 117 H12     -0.9109    10.2459    -0.8663 H       1 <1>    0.0800 
 118 C13     -0.6062    10.0677     1.2732 C.3     1 <1>   -0.1600 
 119 H131     0.2404    10.1276     1.9600 H       1 <1>    0.0800 
 120 C132    -1.3977     8.7921     1.5367 C.3     1 <1>   -0.1600 
 121 H131    -0.9415     7.9679     0.9808 H       1 <1>    0.0800 
 122 H132    -2.4318     8.9155     1.2038 H       1 <1>    0.0800 
 123 C133    -1.3524     8.4578     3.0271 C.3     1 <1>   -0.1600 
 124 C131    -2.1146     7.1533     3.2645 C.3     1 <1>   -0.1600 
 125 H131    -3.1868     7.3302     3.1420 H       1 <1>    0.0800 
 126 C132    -1.8389     6.6614     4.6849 C.3     1 <1>   -0.1600 
 127 H131    -2.2335     7.3856     5.4008 H       1 <1>    0.0800 
 128 H132    -0.7640     6.5868     4.8526 H       1 <1>    0.0800 
 129 C133    -2.4520     5.2870     4.9596 C.3     1 <1>   -0.0218 
 130 H131    -3.5215     5.3354     4.8362 H       1 <1>    0.0800 
 131 C132    -2.0350     4.7628     6.3130 C.2     1 <1>   -0.2882 
 132 H132    -0.9827     4.6409     6.4204 H       1 <1>    0.1500 
 133 C133    -2.8455     4.4257     7.3256 C.2     1 <1>   -0.2882 
 134 H131    -2.4360     4.0463     8.2343 H       1 <1>    0.1500 
 135 C132    -4.3563     4.4857     7.3319 C.3     1 <1>   -0.0218 
 136 C131    -5.0052     3.0991     7.1932 C.3     1 <1>   -0.1600 
 137 H131    -4.7091     2.6686     6.2362 H       1 <1>    0.0800 
 138 C132    -6.5269     3.1767     7.2865 C.3     1 <1>   -0.1600 
 139 H131    -6.8915     3.7404     6.4304 H       1 <1>    0.0800 
 140 H132    -6.7915     3.7052     8.2036 H       1 <1>    0.0800 
 141 C133    -7.2141     1.8104     7.2906 C.3     1 <1>   -0.1600 
 142 H131    -6.9767     1.2694     6.3748 H       1 <1>    0.0800 
 143 C132    -8.7259     2.0460     7.3650 C.3     1 <1>   -0.1600 
 144 H131    -9.0375     2.6449     6.5070 H       1 <1>    0.0800 
 145 H132    -8.9509     2.5861     8.2865 H       1 <1>    0.0800 
 146 C133    -9.4810     0.7130     7.3514 C.3     1 <1>   -0.1600 
 147 H131    -9.1921     0.1850     6.4454 H       1 <1>    0.0800 
 148 C132   -11.0133     0.8582     7.4085 C.3     1 <1>    0.2000 
 149 H132   -11.3864     1.3101     6.4874 H       1 <1>    0.0800 
 150 C133   -11.4720     1.6767     8.6144 C.3     1 <1>   -0.2400 
 151 H131   -11.0460     1.2368     9.5197 H       1 <1>    0.0800 
 152 H132   -12.5606     1.6363     8.6574 H       1 <1>    0.0800 
 153 H133   -11.1580     2.7194     8.5320 H       1 <1>    0.0800 
 154 H133    -9.1573     0.1161     8.2076 H       1 <1>    0.0800 
 155 H133    -6.8825     1.2085     8.1385 H       1 <1>    0.0800 
 156 H133    -4.6320     2.4654     8.0003 H       1 <1>    0.0800 
 157 H132    -4.7443     5.1573     6.5813 H       1 <1>    0.0800 
 158 H133    -4.6664     4.9248     8.2676 H       1 <1>    0.0800 
 159 H133    -2.1187     4.5877     4.2049 H       1 <1>    0.0800 
 160 H133    -1.7935     6.3928     2.5466 H       1 <1>    0.0800 
 161 H132    -1.8040     9.2693     3.6084 H       1 <1>    0.0800 
 162 H133    -0.3100     8.3295     3.3353 H       1 <1>    0.0800 
 163 H133    -1.2493    10.9287     1.4659 H       1 <1>    0.0800 
 164 O2       1.6235    11.7091     0.5597 O.2     1 <1>   -0.5700 
 165 O3       0.8520    11.9483    -1.4873 O.3     1 <1>   -0.6500 
 166 H3       1.4560    12.6762    -1.2665 H       1 <1>    0.5000 
 167 CL     -17.6186   -12.7262   -17.1175 Cl      2 CCL4  -0.0812 
 168 C      -18.6626   -11.3528   -16.6800 C.3     2 CCL4   0.3246 
 169 CL     -20.1157   -11.9641   -15.8795 Cl      2 CCL4  -0.0812 
 170 CL     -19.1383   -10.4401   -18.1240 Cl      2 CCL4  -0.0812 
 171 CL     -17.7964   -10.2832   -15.5588 Cl      2 CCL4  -0.0812 
 172 CL     -21.5488    20.7274   -12.6859 Cl      3 CCL4  -0.0812 
 173 C      -21.5328    21.2873   -14.3743 C.3     3 CCL4   0.3246 
 174 CL     -21.7002    19.9297   -15.5092 Cl      3 CCL4  -0.0812 
 175 CL     -19.9938    22.1079   -14.7098 Cl      3 CCL4  -0.0812 
 176 CL     -22.8653    22.4337   -14.6207 Cl      3 CCL4  -0.0812 
 177 CL     -26.6184    -9.8700   -12.9349 Cl      4 CCL4  -0.0812 
 178 C      -26.1235   -11.5287   -13.3487 C.3     4 CCL4   0.3246 
 179 CL     -26.9786   -12.6847   -12.3070 Cl      4 CCL4  -0.0812 
 180 CL     -24.3730   -11.6972   -13.0986 Cl      4 CCL4  -0.0812 
 181 CL     -26.4897   -11.8809   -15.0534 Cl      4 CCL4  -0.0812 
 182 CL     -19.2968   -18.4089     1.6781 Cl      5 CCL4  -0.0812 
 183 C      -20.9227   -17.7827     1.3097 C.3     5 CCL4   0.3246 
 184 CL     -20.9849   -17.2263    -0.3812 Cl      5 CCL4  -0.0812 
 185 CL     -21.2979   -16.4402     2.4145 Cl      5 CCL4  -0.0812 
 186 CL     -22.1129   -19.0849     1.5384 Cl      5 CCL4  -0.0812 
 187 CL     -25.5702    -1.0139   -12.1065 Cl      6 CCL4  -0.0812 
 188 C      -25.4460     0.7367   -12.3887 C.3     6 CCL4   0.3246 
 189 CL     -26.9024     1.5450   -11.7727 Cl      6 CCL4  -0.0812 
 190 CL     -25.3344     1.0404   -14.1352 Cl      6 CCL4  -0.0812 
 191 CL     -24.0106     1.3911   -11.5709 Cl      6 CCL4  -0.0812 
 192 CL     -21.1239   -13.6340   -13.1671 Cl      7 CCL4  -0.0812 
 193 C      -22.1832   -15.0583   -13.1543 C.3     7 CCL4   0.3246 
 194 CL     -21.2014   -16.4962   -12.7818 Cl      7 CCL4  -0.0812 
 195 CL     -22.9766   -15.2455   -14.7396 Cl      7 CCL4  -0.0812 
 196 CL     -23.4160   -14.8546   -11.8876 Cl      7 CCL4  -0.0812 
 197 CL     -26.2575    22.1110   -13.9363 Cl      8 CCL4  -0.0812 
 198 C      -26.6382    22.6268   -12.2861 C.3     8 CCL4   0.3246 
 199 CL     -25.3127    23.6370   -11.6626 Cl      8 CCL4  -0.0812 
 200 CL     -26.8100    21.1811   -11.2702 Cl      8 CCL4  -0.0812 
 201 CL     -28.1782    23.5217   -12.2884 Cl      8 CCL4  -0.0812 
 202 CL      -9.8098    -3.9127   -15.4229 Cl      9 CCL4  -0.0812 
 203 C       -9.2350    -2.4497   -16.2529 C.3     9 CCL4   0.3246 
 204 CL      -9.0922    -1.1053   -15.0885 Cl      9 CCL4  -0.0812 
 205 CL     -10.3902    -2.0281   -17.5401 Cl      9 CCL4  -0.0812 
 206 CL      -7.6484    -2.7973   -16.9856 Cl      9 CCL4  -0.0812 
 207 CL     -18.6525     2.5120   -17.6669 Cl     10 CCL4  -0.0812 
 208 C      -19.9983     1.7674   -16.7732 C.3    10 CCL4   0.3246 
 209 CL     -19.9554     0.0003   -16.9669 Cl     10 CCL4  -0.0812 
 210 CL     -21.5478     2.3878   -17.3840 Cl     10 CCL4  -0.0812 
 211 CL     -19.8315     2.1539   -15.0493 Cl     10 CCL4  -0.0812 
 212 CL     -26.3760    -0.7073    20.5567 Cl     11 CCL4  -0.0812 
 213 C      -24.8349    -0.3852    21.3847 C.3    11 CCL4   0.3246 
 214 CL     -24.9985     1.0779    22.3799 Cl     11 CCL4  -0.0812 
 215 CL     -23.5797    -0.1120    20.1560 Cl     11 CCL4  -0.0812 
 216 CL     -24.3602    -1.7802    22.3904 Cl     11 CCL4  -0.0812 
 217 CL     -23.8363   -12.9344     2.6338 Cl     12 CCL4  -0.0812 
 218 C      -24.8444   -13.5740     1.3160 C.3    12 CCL4   0.3246 
 219 CL     -24.3212   -12.8669    -0.2253 Cl     12 CCL4  -0.0812 
 220 CL     -26.5544   -13.1951     1.6193 Cl     12 CCL4  -0.0812 
 221 CL     -24.6325   -15.3376     1.2571 Cl     12 CCL4  -0.0812 
 222 CL      16.4312   -10.5309     4.1048 Cl     13 CCL4  -0.0812 
 223 C       16.0972   -11.0146     2.4264 C.3    13 CCL4   0.3246 
 224 CL      15.9456   -12.7834     2.3248 Cl     13 CCL4  -0.0812 
 225 CL      17.4178   -10.4519     1.3810 Cl     13 CCL4  -0.0812 
 226 CL      14.5898   -10.2524     1.8701 Cl     13 CCL4  -0.0812 
 227 CL     -19.5128   -15.8590    23.8553 Cl     14 CCL4  -0.0812 
 228 C      -19.4154   -16.6122    22.2427 C.3    14 CCL4   0.3246 
 229 CL     -20.8524   -17.6345    21.9789 Cl     14 CCL4  -0.0812 
 230 CL     -17.9508   -17.6154    22.1388 Cl     14 CCL4  -0.0812 
 231 CL     -19.3633   -15.3415    20.9980 Cl     14 CCL4  -0.0812 
 232 CL     -22.4546    -9.9858    21.3890 Cl     15 CCL4  -0.0812 
 233 C      -22.9973   -11.6800    21.4246 C.3    15 CCL4   0.3246 
 234 CL     -24.4610   -11.8324    20.4294 Cl     15 CCL4  -0.0812 
 235 CL     -23.3680   -12.1628    23.0952 Cl     15 CCL4  -0.0812 
 236 CL     -21.7360   -12.7585    20.7831 Cl     15 CCL4  -0.0812 
 237 CL     -30.2576   -12.4442    19.1184 Cl     16 CCL4  -0.0812 
 238 C      -30.1404   -12.8482    20.8440 C.3    16 CCL4   0.3246 
 239 CL     -30.1185   -14.6165    21.0302 Cl     16 CCL4  -0.0812 
 240 CL     -31.5516   -12.1835    21.6966 Cl     16 CCL4  -0.0812 
 241 CL     -28.6530   -12.1345    21.5077 Cl     16 CCL4  -0.0812 
 242 CL     -26.7650   -15.5967   -14.3950 Cl     17 CCL4  -0.0812 
 243 C      -27.8166   -15.8608   -15.8039 C.3    17 CCL4   0.3246 
 244 CL     -27.1192   -14.9965   -17.1906 Cl     17 CCL4  -0.0812 
 245 CL     -29.4456   -15.2368   -15.4683 Cl     17 CCL4  -0.0812 
 246 CL     -27.9392   -17.5889   -16.1847 Cl     17 CCL4  -0.0812 
 247 CL      -5.3518   -12.5628   -11.3520 Cl     18 CCL4  -0.0812 
 248 C       -5.4587   -14.0096   -12.3836 C.3    18 CCL4   0.3246 
 249 CL      -6.9847   -14.8640   -12.0653 Cl     18 CCL4  -0.0812 
 250 CL      -4.0936   -15.0998   -12.0285 Cl     18 CCL4  -0.0812 
 251 CL      -5.3923   -13.5275   -14.0989 Cl     18 CCL4  -0.0812 
 252 CL      -6.5176    20.2792   -11.1938 Cl     19 CCL4  -0.0812 
 253 C       -7.9756    20.7865   -12.0764 C.3    19 CCL4   0.3246 
 254 CL      -7.6864    20.6739   -13.8329 Cl     19 CCL4  -0.0812 
 255 CL      -8.3646    22.4677   -11.6526 Cl     19 CCL4  -0.0812 
 256 CL      -9.3520    19.7506   -11.6259 Cl     19 CCL4  -0.0812 
 257 CL      -7.1269   -13.8972    -6.9649 Cl     20 CCL4  -0.0812 
 258 C       -8.5718   -14.9235    -7.1227 C.3    20 CCL4   0.3246 
 259 CL      -9.1938   -14.8018    -8.7878 Cl     20 CCL4  -0.0812 
 260 CL      -9.8352   -14.3773    -5.9932 Cl     20 CCL4  -0.0812 
 261 CL      -8.1382   -16.6143    -6.7681 Cl     20 CCL4  -0.0812 
 262 CL      16.3869     1.9162   -14.1434 Cl     21 CCL4  -0.0812 
 263 C       15.2302     1.1481   -13.0472 C.3    21 CCL4   0.3246 
 264 CL      13.7127     0.8027   -13.9177 Cl     21 CCL4  -0.0812 
 265 CL      14.9194     2.2564   -11.6881 Cl     21 CCL4  -0.0812 
 266 CL      15.9702    -0.3540   -12.4577 Cl     21 CCL4  -0.0812 
 267 CL      -6.6728   -18.0397    21.5069 Cl     22 CCL4  -0.0812 
 268 C       -6.8888   -16.2934    21.2457 C.3    22 CCL4   0.3246 
 269 CL      -5.8588   -15.3949    22.3846 Cl     22 CCL4  -0.0812 
 270 CL      -8.5925   -15.8607    21.5148 Cl     22 CCL4  -0.0812 
 271 CL      -6.4378   -15.8695    19.5749 Cl     22 CCL4  -0.0812 
 272 CL     -27.7572    22.0380    -5.5160 Cl     23 CCL4  -0.0812 
 273 C      -26.2111    21.2757    -5.9608 C.3    23 CCL4   0.3246 
 274 CL     -26.3962    20.3983    -7.4997 Cl     23 CCL4  -0.0812 
 275 CL     -25.7395    20.1307    -4.6806 Cl     23 CCL4  -0.0812 
 276 CL     -24.9550    22.5275    -6.1316 Cl     23 CCL4  -0.0812 
 277 CL     -19.2564   -13.9152    -2.5835 Cl     24 CCL4  -0.0812 
 278 C      -18.6773   -13.9428    -0.9002 C.3    24 CCL4   0.3246 
 279 CL     -20.0709   -13.7849     0.2022 Cl     24 CCL4  -0.0812 
 280 CL     -17.5516   -12.5952    -0.6116 Cl     24 CCL4  -0.0812 
 281 CL     -17.8399   -15.4803    -0.5838 Cl     24 CCL4  -0.0812 
 282 CL      -4.8370    21.6234    -6.2358 Cl     25 CCL4  -0.0812 
 283 C       -5.1642    19.8933    -6.5033 C.3    25 CCL4   0.3246 
 284 CL      -3.6996    19.0752    -7.0979 Cl     25 CCL4  -0.0812 
 285 CL      -6.4566    19.7251    -7.7127 Cl     25 CCL4  -0.0812 
 286 CL      -5.6887    19.1396    -4.9773 Cl     25 CCL4  -0.0812 
 287 CL     -20.0866   -14.7679    -8.8101 Cl     26 CCL4  -0.0812 
 288 C      -19.5021   -13.7996    -7.4306 C.3    26 CCL4   0.3246 
 289 CL     -18.6907   -12.3372    -8.0445 Cl     26 CCL4  -0.0812 
 290 CL     -18.3705   -14.7741    -6.4643 Cl     26 CCL4  -0.0812 
 291 CL     -20.8877   -13.3281    -6.4119 Cl     26 CCL4  -0.0812 
 292 CL     -21.8764   -11.1422    -9.0806 Cl     27 CCL4  -0.0812 
 293 C      -23.4399   -10.6247    -8.4086 C.3    27 CCL4   0.3246 
 294 CL     -23.1729    -9.7550    -6.8759 Cl     27 CCL4  -0.0812 
 295 CL     -24.4566   -12.0532    -8.0929 Cl     27 CCL4  -0.0812 
 296 CL     -24.2647    -9.5660    -9.5804 Cl     27 CCL4  -0.0812 
 297 CL     -16.4132   -20.1551   -10.0194 Cl     28 CCL4  -0.0812 
 298 C      -17.0156   -18.9802    -8.8275 C.3    28 CCL4   0.3246 
 299 CL     -18.4878   -18.1922    -9.4506 Cl     28 CCL4  -0.0812 
 300 CL     -15.7615   -17.7500    -8.5527 Cl     28 CCL4  -0.0812 
 301 CL     -17.3748   -19.7832    -7.2799 Cl     28 CCL4  -0.0812 
 302 CL     -23.7656    -1.2938    -2.5379 Cl     29 CCL4  -0.0812 
 303 C      -23.7725     0.4868    -2.6330 C.3    29 CCL4   0.3246 
 304 CL     -24.2276     1.1534    -1.0475 Cl     29 CCL4  -0.0812 
 305 CL     -24.9407     1.0033    -3.8754 Cl     29 CCL4  -0.0812 
 306 CL     -22.1481     1.0699    -3.0588 Cl     29 CCL4  -0.0812 
 307 CL     -19.7594   -17.6478    -4.1134 Cl     30 CCL4  -0.0812 
 308 C      -20.5295   -19.1258    -4.7400 C.3    30 CCL4   0.3246 
 309 CL     -20.7806   -18.9764    -6.4987 Cl     30 CCL4  -0.0812 
 310 CL     -22.0913   -19.3958    -3.9294 Cl     30 CCL4  -0.0812 
 311 CL     -19.4612   -20.5104    -4.4043 Cl     30 CCL4  -0.0812 
 312 CL     -15.5068   -10.5827    -5.9788 Cl     31 CCL4  -0.0812 
 313 C      -15.1392   -10.9164    -4.2716 C.3    31 CCL4   0.3246 
 314 CL     -15.9048   -12.4522    -3.7884 Cl     31 CCL4  -0.0812 
 315 CL     -15.7575    -9.5838    -3.2641 Cl     31 CCL4  -0.0812 
 316 CL     -13.3756   -11.0515    -4.0717 Cl     31 CCL4  -0.0812 
 317 CL     -24.3674   -15.8658    -2.3253 Cl     32 CCL4  -0.0812 
 318 C      -24.0482   -15.0596    -3.8808 C.3    32 CCL4   0.3246 
 319 CL     -25.5114   -15.0593    -4.8981 Cl     32 CCL4  -0.0812 
 320 CL     -22.7607   -15.9334    -4.7368 Cl     32 CCL4  -0.0812 
 321 CL     -23.5298   -13.3789    -3.5883 Cl     32 CCL4  -0.0812 
 322 CL      -9.5277   -11.4560    -2.4356 Cl     33 CCL4  -0.0812 
 323 C       -7.8673   -12.0106    -2.0990 C.3    33 CCL4   0.3246 
 324 CL      -6.7704   -10.6084    -2.0870 Cl     33 CCL4  -0.0812 
 325 CL      -7.3485   -13.1322    -3.3806 Cl     33 CCL4  -0.0812 
 326 CL      -7.8045   -12.8308    -0.5215 Cl     33 CCL4  -0.0812 
 327 CL     -27.1013   -15.2636    -9.8673 Cl     34 CCL4  -0.0812 
 328 C      -28.3378   -16.1127    -8.9174 C.3    34 CCL4   0.3246 
 329 CL     -29.9400   -15.9267    -9.6742 Cl     34 CCL4  -0.0812 
 330 CL     -28.3680   -15.4286    -7.2784 Cl     34 CCL4  -0.0812 
 331 CL     -27.9072   -17.8351    -8.7976 Cl     34 CCL4  -0.0812 
 332 CL      -5.5661    -1.4194    -5.5726 Cl     35 CCL4  -0.0812 
 333 C       -5.6014    -0.9596    -7.2898 C.3    35 CCL4   0.3246 
 334 CL      -4.7152     0.5594    -7.5237 Cl     35 CCL4  -0.0812 
 335 CL      -7.2880    -0.7368    -7.7958 Cl     35 CCL4  -0.0812 
 336 CL      -4.8658    -2.2238    -8.2989 Cl     35 CCL4  -0.0812 
 337 CL     -24.9437    21.8464    -1.5029 Cl     36 CCL4  -0.0812 
 338 C      -26.2469    22.0113    -0.3025 C.3    36 CCL4   0.3246 
 339 CL     -27.0129    20.4297    -0.0218 Cl     36 CCL4  -0.0812 
 340 CL     -27.4660    23.1582    -0.9106 Cl     36 CCL4  -0.0812 
 341 CL     -25.5879    22.6299     1.2253 Cl     36 CCL4  -0.0812 
 342 CL      14.1392   -17.8603     3.0260 Cl     37 CCL4  -0.0812 
 343 C       15.8079   -18.4412     2.8200 C.3    37 CCL4   0.3246 
 344 CL      16.9265   -17.0545     2.7305 Cl     37 CCL4  -0.0812 
 345 CL      15.9154   -19.3980     1.3254 Cl     37 CCL4  -0.0812 
 346 CL      16.2429   -19.4752     4.2007 Cl     37 CCL4  -0.0812 
 347 CL     -21.6216    -6.9647   -15.1828 Cl     38 CCL4  -0.0812 
 348 C      -22.4908    -8.2139   -14.2608 C.3    38 CCL4   0.3246 
 349 CL     -23.6709    -8.9935   -15.3372 Cl     38 CCL4  -0.0812 
 350 CL     -23.3526    -7.4522   -12.9021 Cl     38 CCL4  -0.0812 
 351 CL     -21.3275    -9.4163   -13.6531 Cl     38 CCL4  -0.0812 
 352 CL     -23.3705    -3.2448    -7.0020 Cl     39 CCL4  -0.0812 
 353 C      -22.9620    -3.0549    -8.7198 C.3    39 CCL4   0.3246 
 354 CL     -23.5158    -4.4791    -9.6307 Cl     39 CCL4  -0.0812 
 355 CL     -21.2003    -2.8929    -8.8850 Cl     39 CCL4  -0.0812 
 356 CL     -23.7623    -1.6030    -9.3438 Cl     39 CCL4  -0.0812 
 357 CL     -26.8583    -5.0722   -11.6436 Cl     40 CCL4  -0.0812 
 358 C      -28.3774    -5.5011   -10.8154 C.3    40 CCL4   0.3246 
 359 CL     -28.4497    -7.2599   -10.5511 Cl     40 CCL4  -0.0812 
 360 CL     -29.7596    -4.9980   -11.8145 Cl     40 CCL4  -0.0812 
 361 CL     -28.4329    -4.6749    -9.2429 Cl     40 CCL4  -0.0812 
 362 CL      -6.5733    -6.7789    -0.8978 Cl     41 CCL4  -0.0812 
 363 C       -5.9755    -6.2234     0.6830 C.3    41 CCL4   0.3246 
 364 CL      -7.1006    -6.7419     1.9536 Cl     41 CCL4  -0.0812 
 365 CL      -5.8629    -4.4529     0.6994 Cl     41 CCL4  -0.0812 
 366 CL      -4.3698    -6.9274     0.9718 Cl     41 CCL4  -0.0812 
 367 CL     -21.3450    -3.4222   -15.6244 Cl     42 CCL4  -0.0812 
 368 C      -22.2635    -2.7479   -14.2582 C.3    42 CCL4   0.3246 
 369 CL     -21.3052    -2.8857   -12.7698 Cl     42 CCL4  -0.0812 
 370 CL     -23.7852    -3.6428   -14.0407 Cl     42 CCL4  -0.0812 
 371 CL     -22.6145    -1.0314   -14.5679 Cl     42 CCL4  -0.0812 
 372 CL     -27.8253     1.2640    -6.1255 Cl     43 CCL4  -0.0812 
 373 C      -27.9883    -0.2405    -7.0622 C.3    43 CCL4   0.3246 
 374 CL     -29.5366    -1.0090    -6.6556 Cl     43 CCL4  -0.0812 
 375 CL     -26.6522    -1.3492    -6.6611 Cl     43 CCL4  -0.0812 
 376 CL     -27.9513     0.1177    -8.8048 Cl     43 CCL4  -0.0812 
 377 CL      17.1450    -2.7228   -18.0236 Cl     44 CCL4  -0.0812 
 378 C       17.1368    -2.0776   -16.3628 C.3    44 CCL4   0.3246 
 379 CL      16.7366    -3.3798   -15.2131 Cl     44 CCL4  -0.0812 
 380 CL      15.9059    -0.8021   -16.2600 Cl     44 CCL4  -0.0812 
 381 CL      18.7280    -1.4001   -15.9486 Cl     44 CCL4  -0.0812 
 382 CL     -27.0035    -8.6840   -16.9374 Cl     45 CCL4  -0.0812 
 383 C      -27.0653    -6.9796   -16.4277 C.3    45 CCL4   0.3246 
 384 CL     -28.2467    -6.0912   -17.4149 Cl     45 CCL4  -0.0812 
 385 CL     -25.4600    -6.2417   -16.6486 Cl     45 CCL4  -0.0812 
 386 CL     -27.5235    -6.8726   -14.7130 Cl     45 CCL4  -0.0812 
 387 CL      -8.3824   -10.9871    -8.8580 Cl     46 CCL4  -0.0812 
 388 C       -8.7395    -9.6923    -7.6928 C.3    46 CCL4   0.3246 
 389 CL      -7.2582    -9.3056    -6.7901 Cl     46 CCL4  -0.0812 
 390 CL      -9.9811   -10.2461    -6.5455 Cl     46 CCL4  -0.0812 
 391 CL      -9.3081    -8.2412    -8.5573 Cl     46 CCL4  -0.0812 
 392 CL      -7.1093    -4.7866   -10.2671 Cl     47 CCL4  -0.0812 
 393 C       -8.0668    -3.9428   -11.5136 C.3    47 CCL4   0.3246 
 394 CL      -9.6100    -4.8007   -11.7665 Cl     47 CCL4  -0.0812 
 395 CL      -7.1536    -3.8738   -13.0400 Cl     47 CCL4  -0.0812 
 396 CL      -8.3807    -2.2696   -10.9982 Cl     47 CCL4  -0.0812 
 397 CL     -18.4602    -3.0218    -2.8112 Cl     48 CCL4  -0.0812 
 398 C      -19.9585    -3.3135    -1.9083 C.3    48 CCL4   0.3246 
 399 CL     -19.6504    -4.6367    -0.7615 Cl     48 CCL4  -0.0812 
 400 CL     -21.2577    -3.7906    -3.0245 Cl     48 CCL4  -0.0812 
 401 CL     -20.4147    -1.8201    -1.0497 Cl     48 CCL4  -0.0812 
 402 CL     -21.0395    -5.8108    -6.8590 Cl     49 CCL4  -0.0812 
 403 C      -20.0668    -6.8141    -7.9611 C.3    49 CCL4   0.3246 
 404 CL     -21.1318    -7.5083    -9.2011 Cl     49 CCL4  -0.0812 
 405 CL     -19.3375    -8.1372    -7.0224 Cl     49 CCL4  -0.0812 
 406 CL     -18.7964    -5.8416    -8.7305 Cl     49 CCL4  -0.0812 
 407 CL     -15.7983    -4.0176    -7.7362 Cl     50 CCL4  -0.0812 
 408 C      -16.4879    -4.4303    -6.1517 C.3    50 CCL4   0.3246 
 409 CL     -18.1577    -3.8249    -6.0756 Cl     50 CCL4  -0.0812 
 410 CL     -15.5295    -3.6463    -4.8760 Cl     50 CCL4  -0.0812 
 411 CL     -16.4761    -6.1929    -5.8926 Cl     50 CCL4  -0.0812 
 412 CL     -26.6054    -8.3205    -1.4443 Cl     51 CCL4  -0.0812 
 413 C      -27.0221    -9.7156    -2.4711 C.3    51 CCL4   0.3246 
 414 CL     -28.6404    -9.5018    -3.1884 Cl     51 CCL4  -0.0812 
 415 CL     -27.0292   -11.1803    -1.4780 Cl     51 CCL4  -0.0812 
 416 CL     -25.8036    -9.9139    -3.7511 Cl     51 CCL4  -0.0812 
 417 CL     -25.4238    -4.4491    -4.4520 Cl     52 CCL4  -0.0812 
 418 C      -25.5960    -6.0490    -5.2098 C.3    52 CCL4   0.3246 
 419 CL     -25.7023    -5.8706    -6.9795 Cl     52 CCL4  -0.0812 
 420 CL     -27.0747    -6.8083    -4.5909 Cl     52 CCL4  -0.0812 
 421 CL     -24.1809    -7.0391    -4.7840 Cl     52 CCL4  -0.0812 
 422 CL      -9.7541    -1.5539    -2.1386 Cl     53 CCL4  -0.0812 
 423 C       -8.3881    -2.6702    -1.9143 C.3    53 CCL4   0.3246 
 424 CL      -7.8118    -3.2922    -3.4750 Cl     53 CCL4  -0.0812 
 425 CL      -8.9218    -4.0252    -0.8938 Cl     53 CCL4  -0.0812 
 426 CL      -7.0844    -1.7888    -1.0909 Cl     53 CCL4  -0.0812 
 427 CL     -19.6137     1.8559    -5.4972 Cl     54 CCL4  -0.0812 
 428 C      -18.9694     0.1973    -5.4906 C.3    54 CCL4   0.3246 
 429 CL     -17.6533     0.0762    -4.2966 Cl     54 CCL4  -0.0812 
 430 CL     -18.3444    -0.1756    -7.1105 Cl     54 CCL4  -0.0812 
 431 CL     -20.2612    -0.9587    -5.0965 Cl     54 CCL4  -0.0812 
 432 CL     -30.8630    -2.4737    -2.9513 Cl     55 CCL4  -0.0812 
 433 C      -29.5255    -2.6411    -1.7914 C.3    55 CCL4   0.3246 
 434 CL     -28.6906    -4.1835    -2.0862 Cl     55 CCL4  -0.0812 
 435 CL     -30.1769    -2.6088    -0.1326 Cl     55 CCL4  -0.0812 
 436 CL     -28.3733    -1.3055    -2.0287 Cl     55 CCL4  -0.0812 
 437 CL     -22.2216    -6.9781     0.4950 Cl     56 CCL4  -0.0812 
 438 C      -23.3246    -5.6033     0.7531 C.3    56 CCL4   0.3246 
 439 CL     -24.2921    -5.8780     2.2213 Cl     56 CCL4  -0.0812 
 440 CL     -24.4044    -5.4575    -0.6548 Cl     56 CCL4  -0.0812 
 441 CL     -22.4219    -4.0868     0.9493 Cl     56 CCL4  -0.0812 
 442 CL     -19.5238    -9.6866    -0.8357 Cl     57 CCL4  -0.0812 
 443 C      -20.3088    -9.4038    -2.4069 C.3    57 CCL4   0.3246 
 444 CL     -19.5138   -10.4092    -3.6463 Cl     57 CCL4  -0.0812 
 445 CL     -20.1480    -7.6815    -2.8374 Cl     57 CCL4  -0.0812 
 446 CL     -22.0315    -9.8406    -2.2912 Cl     57 CCL4  -0.0812 
 447 CL     -12.4978    -3.1042    -6.7410 Cl     58 CCL4  -0.0812 
 448 C      -10.7293    -3.2558    -6.5857 C.3    58 CCL4   0.3246 
 449 CL     -10.1011    -1.8308    -5.7265 Cl     58 CCL4  -0.0812 
 450 CL      -9.9541    -3.3657    -8.1745 Cl     58 CCL4  -0.0812 
 451 CL     -10.3251    -4.7213    -5.6803 Cl     58 CCL4  -0.0812 
 452 CL      15.0368    -5.9250    -4.2316 Cl     59 CCL4  -0.0812 
 453 C       15.4558    -5.2708    -5.8332 C.3    59 CCL4   0.3246 
 454 CL      16.9319    -4.2851    -5.7118 Cl     59 CCL4  -0.0812 
 455 CL      14.1298    -4.2581    -6.4526 Cl     59 CCL4  -0.0812 
 456 CL      15.7597    -6.6184    -6.9505 Cl     59 CCL4  -0.0812 
 457 CL     -30.0687   -10.2231    -6.7585 Cl     60 CCL4  -0.0812 
 458 C      -28.4203   -10.7588    -7.1507 C.3    60 CCL4   0.3246 
 459 CL     -28.3934   -11.4501    -8.7929 Cl     60 CCL4  -0.0812 
 460 CL     -27.9059   -12.0015    -5.9805 Cl     60 CCL4  -0.0812 
 461 CL     -27.3052    -9.3712    -7.0837 Cl     60 CCL4  -0.0812 
 462 CL     -16.2229    -6.4090    -1.1557 Cl     61 CCL4  -0.0812 
 463 C      -16.1376    -7.0888     0.4895 C.3    61 CCL4   0.3246 
 464 CL     -14.5543    -6.7053     1.2050 Cl     61 CCL4  -0.0812 
 465 CL     -16.3035    -8.8597     0.4234 Cl     61 CCL4  -0.0812 
 466 CL     -17.4267    -6.4005     1.5040 Cl     61 CCL4  -0.0812 
 467 CL     -13.9227    -8.2079   -15.6686 Cl     62 CCL4  -0.0812 
 468 C      -13.1951    -6.6454   -15.2150 C.3    62 CCL4   0.3246 
 469 CL     -13.0358    -5.6120   -16.6621 Cl     62 CCL4  -0.0812 
 470 CL     -11.5813    -6.9653   -14.5410 Cl     62 CCL4  -0.0812 
 471 CL     -14.1855    -5.8366   -13.9805 Cl     62 CCL4  -0.0812 
 472 CL     -16.6007   -14.4304   -14.0179 Cl     63 CCL4  -0.0812 
 473 C      -16.4419   -15.6243   -12.7076 C.3    63 CCL4   0.3246 
 474 CL     -17.0747   -14.9337   -11.1970 Cl     63 CCL4  -0.0812 
 475 CL     -14.7260   -16.0625   -12.5044 Cl     63 CCL4  -0.0812 
 476 CL     -17.3693   -17.0960   -13.0973 Cl     63 CCL4  -0.0812 
 477 CL     -10.8422   -13.3235     1.8514 Cl     64 CCL4  -0.0812 
 478 C       -9.9010   -14.5373     2.7394 C.3    64 CCL4   0.3246 
 479 CL     -10.9899   -15.4374     3.8205 Cl     64 CCL4  -0.0812 
 480 CL      -8.6769   -13.6948     3.7073 Cl     64 CCL4  -0.0812 
 481 CL      -9.0877   -15.6524     1.6152 Cl     64 CCL4  -0.0812 
 482 CL      -8.7460   -12.9484    24.3791 Cl     65 CCL4  -0.0812 
 483 C       -8.8451   -11.8564    22.9837 C.3    65 CCL4   0.3246 
 484 CL      -7.4611   -12.1850    21.9152 Cl     65 CCL4  -0.0812 
 485 CL      -8.7743   -10.1764    23.5644 Cl     65 CCL4  -0.0812 
 486 CL     -10.3715   -12.1287    22.1033 Cl     65 CCL4  -0.0812 
 487 CL     -11.0605   -18.0383   -14.6860 Cl     66 CCL4  -0.0812 
 488 C      -10.3481   -16.4470   -14.3241 C.3    66 CCL4   0.3246 
 489 CL     -10.3175   -16.2052   -12.5632 Cl     66 CCL4  -0.0812 
 490 CL     -11.3402   -15.1642   -15.0589 Cl     66 CCL4  -0.0812 
 491 CL      -8.6889   -16.3902   -14.9701 Cl     66 CCL4  -0.0812 
 492 CL      -9.0714    -9.4367   -12.3222 Cl     67 CCL4  -0.0812 
 493 C      -10.2836   -10.7345   -12.2283 C.3    67 CCL4   0.3246 
 494 CL     -11.3046   -10.6786   -13.6836 Cl     67 CCL4  -0.0812 
 495 CL     -11.2836   -10.5045   -10.7776 Cl     67 CCL4  -0.0812 
 496 CL      -9.4589   -12.3059   -12.1330 Cl     67 CCL4  -0.0812 
 497 CL     -14.9569   -15.3266   -18.1143 Cl     68 CCL4  -0.0812 
 498 C      -14.0573   -16.8345   -17.8220 C.3    68 CCL4   0.3246 
 499 CL     -14.6325   -18.1152   -18.9173 Cl     68 CCL4  -0.0812 
 500 CL     -14.3177   -17.3288   -16.1318 Cl     68 CCL4  -0.0812 
 501 CL     -12.3198   -16.5785   -18.1132 Cl     68 CCL4  -0.0812 
 502 CL     -14.6719    -2.2110   -12.0318 Cl     69 CCL4  -0.0812 
 503 C      -12.9579    -1.7623   -11.8782 C.3    69 CCL4   0.3246 
 504 CL     -12.3843    -2.2180   -10.2577 Cl     69 CCL4  -0.0812 
 505 CL     -12.7804    -0.0068   -12.1242 Cl     69 CCL4  -0.0812 
 506 CL     -12.0076    -2.6289   -13.1019 Cl     69 CCL4  -0.0812 
 507 CL     -17.2921    -3.0764   -17.5089 Cl     70 CCL4  -0.0812 
 508 C      -15.8755    -2.0903   -17.0777 C.3    70 CCL4   0.3246 
 509 CL     -15.2519    -2.6270   -15.5044 Cl     70 CCL4  -0.0812 
 510 CL     -16.3507    -0.3778   -16.9898 Cl     70 CCL4  -0.0812 
 511 CL     -14.6089    -2.2805   -18.3165 Cl     70 CCL4  -0.0812 
 512 CL     -13.0900   -15.1685    -9.0700 Cl     71 CCL4  -0.0812 
 513 C      -13.9029   -13.5910    -9.1038 C.3    71 CCL4   0.3246 
 514 CL     -15.5072   -13.7219    -8.3562 Cl     71 CCL4  -0.0812 
 515 CL     -14.0430   -13.0605   -10.7961 Cl     71 CCL4  -0.0812 
 516 CL     -12.9353   -12.4147    -8.1863 Cl     71 CCL4  -0.0812 
 517 CL     -15.9919   -10.4959    -9.9153 Cl     72 CCL4  -0.0812 
 518 C      -16.9087   -10.0755   -11.3784 C.3    72 CCL4   0.3246 
 519 CL     -17.6666   -11.5377   -12.0448 Cl     72 CCL4  -0.0812 
 520 CL     -15.8102    -9.3852   -12.5935 Cl     72 CCL4  -0.0812 
 521 CL     -18.1855    -8.9250   -10.9335 Cl     72 CCL4  -0.0812 
 522 CL     -12.6546   -20.0888    -6.9037 Cl     73 CCL4  -0.0812 
 523 C      -11.5366   -18.9836    -7.7316 C.3    73 CCL4   0.3246 
 524 CL     -12.0801   -18.7463    -9.4119 Cl     73 CCL4  -0.0812 
 525 CL      -9.8961   -19.6766    -7.7348 Cl     73 CCL4  -0.0812 
 526 CL     -11.5215   -17.4262    -6.8805 Cl     73 CCL4  -0.0812 
 527 CL      16.0344   -13.2264    -2.9524 Cl     74 CCL4  -0.0812 
 528 C       16.8014   -14.7491    -2.4352 C.3    74 CCL4   0.3246 
 529 CL      16.0852   -15.2864    -0.8939 Cl     74 CCL4  -0.0812 
 530 CL      16.5667   -15.9973    -3.6804 Cl     74 CCL4  -0.0812 
 531 CL      18.5368   -14.4795    -2.1948 Cl     74 CCL4  -0.0812 
 532 CL     -11.2599    -9.1937     2.9828 Cl     75 CCL4  -0.0812 
 533 C      -10.5148    -9.2962     1.3702 C.3    75 CCL4   0.3246 
 534 CL     -10.3061    -7.6516     0.7114 Cl     75 CCL4  -0.0812 
 535 CL     -11.5773   -10.2421     0.3005 Cl     75 CCL4  -0.0812 
 536 CL      -8.9320   -10.0986     1.4784 Cl     75 CCL4  -0.0812 
 537 CL     -16.3550     2.5609    -7.9929 Cl     76 CCL4  -0.0812 
 538 C      -14.9671     1.4568    -8.0909 C.3    76 CCL4   0.3246 
 539 CL     -14.8259     0.5278    -6.5797 Cl     76 CCL4  -0.0812 
 540 CL     -13.4953     2.4146    -8.3288 Cl     76 CCL4  -0.0812 
 541 CL     -15.1971     0.3303    -9.4479 Cl     76 CCL4  -0.0812 
 542 CL     -14.9063     0.1999    -1.2966 Cl     77 CCL4  -0.0812 
 543 C      -14.1023    -1.3883    -1.1877 C.3    77 CCL4   0.3246 
 544 CL     -13.2379    -1.7090    -2.7123 Cl     77 CCL4  -0.0812 
 545 CL     -15.3219    -2.6578    -0.9041 Cl     77 CCL4  -0.0812 
 546 CL     -12.9242    -1.3594     0.1452 Cl     77 CCL4  -0.0812 
 547 CL     -12.0684   -16.7323     0.3541 Cl     78 CCL4  -0.0812 
 548 C      -12.4688   -15.7801    -1.0880 C.3    78 CCL4   0.3246 
 549 CL     -12.5778   -16.8636    -2.4899 Cl     78 CCL4  -0.0812 
 550 CL     -11.2048   -14.5657    -1.3779 Cl     78 CCL4  -0.0812 
 551 CL     -14.0388   -14.9728    -0.8635 Cl     78 CCL4  -0.0812 
 552 CL      -8.6832   -16.2974    -3.2259 Cl     79 CCL4  -0.0812 
 553 C       -8.5230   -18.0395    -2.9312 C.3    79 CCL4   0.3246 
 554 CL      -8.6735   -18.3522    -1.1833 Cl     79 CCL4  -0.0812 
 555 CL      -6.9422   -18.6070    -3.5212 Cl     79 CCL4  -0.0812 
 556 CL      -9.8087   -18.9062    -3.8027 Cl     79 CCL4  -0.0812 
 557 CL     -10.1042    -7.5221    -3.3793 Cl     80 CCL4  -0.0812 
 558 C      -11.7564    -6.8690    -3.2045 C.3    80 CCL4   0.3246 
 559 CL     -12.6163    -6.9748    -4.7605 Cl     80 CCL4  -0.0812 
 560 CL     -11.7132    -5.1735    -2.6564 Cl     80 CCL4  -0.0812 
 561 CL     -12.6600    -7.8287    -2.0148 Cl     80 CCL4  -0.0812 
 562 CL     -16.8841    -3.9614     3.8542 Cl     81 CCL4  -0.0812 
 563 C      -16.7384    -2.2841     3.2857 C.3    81 CCL4   0.3246 
 564 CL     -15.0704    -2.0069     2.7475 Cl     81 CCL4  -0.0812 
 565 CL     -17.1135    -1.1810     4.6328 Cl     81 CCL4  -0.0812 
 566 CL     -17.8569    -2.0080     1.9266 Cl     81 CCL4  -0.0812 
 567 CL     -16.3804    -8.6062    21.4678 Cl     82 CCL4  -0.0812 
 568 C      -17.0409    -6.9685    21.6835 C.3    82 CCL4   0.3246 
 569 CL     -16.6144    -6.3668    23.2931 Cl     82 CCL4  -0.0812 
 570 CL     -18.8142    -6.9578    21.5185 Cl     82 CCL4  -0.0812 
 571 CL     -16.3148    -5.8989    20.4622 Cl     82 CCL4  -0.0812 
 572 CL     -12.8870    -5.8128    -8.8026 Cl     83 CCL4  -0.0812 
 573 C      -13.6956    -7.3540    -9.1699 C.3    83 CCL4   0.3246 
 574 CL     -13.1067    -8.6186    -8.0660 Cl     83 CCL4  -0.0812 
 575 CL     -13.3197    -7.7947   -10.8495 Cl     83 CCL4  -0.0812 
 576 CL     -15.4550    -7.1872    -8.9995 Cl     83 CCL4  -0.0812 
 577 CL     -18.2885    -4.4016   -13.9401 Cl     84 CCL4  -0.0812 
 578 C      -18.3514    -5.8394   -12.8933 C.3    84 CCL4   0.3246 
 579 CL     -19.9024    -5.8617   -12.0235 Cl     84 CCL4  -0.0812 
 580 CL     -16.9926    -5.7770   -11.7489 Cl     84 CCL4  -0.0812 
 581 CL     -18.2463    -7.2979   -13.8990 Cl     84 CCL4  -0.0812 
 582 CL     -18.6774    -0.3704   -12.9026 Cl     85 CCL4  -0.0812 
 583 C      -19.0735    -0.1437   -11.1813 C.3    85 CCL4   0.3246 
 584 CL     -18.3703     1.3819   -10.6051 Cl     85 CCL4  -0.0812 
 585 CL     -18.3870    -1.5161   -10.2748 Cl     85 CCL4  -0.0812 
 586 CL     -20.8369    -0.0764   -10.9826 Cl     85 CCL4  -0.0812 
 587 CL     -18.7378   -12.7016     7.1929 Cl     86 CCL4  -0.0812 
 588 C      -17.9393   -11.7915     8.4857 C.3    86 CCL4   0.3246 
 589 CL     -16.7886   -12.8589     9.3206 Cl     86 CCL4  -0.0812 
 590 CL     -19.1594   -11.2257     9.6450 Cl     86 CCL4  -0.0812 
 591 CL     -17.0759   -10.3846     7.8191 Cl     86 CCL4  -0.0812 
 592 CL     -22.4030    19.1944    13.4685 Cl     87 CCL4  -0.0812 
 593 C      -21.8920    20.1244    12.0423 C.3    87 CCL4   0.3246 
 594 CL     -23.1015    19.9469    10.7507 Cl     87 CCL4  -0.0812 
 595 CL     -20.3291    19.4836    11.4721 Cl     87 CCL4  -0.0812 
 596 CL     -21.7222    21.8402    12.4879 Cl     87 CCL4  -0.0812 
 597 CL     -26.2174   -10.7601    11.3066 Cl     88 CCL4  -0.0812 
 598 C      -25.3163   -12.1091    12.0263 C.3    88 CCL4   0.3246 
 599 CL     -25.6187   -12.1611    13.7762 Cl     88 CCL4  -0.0812 
 600 CL     -23.5842   -11.8463    11.7060 Cl     88 CCL4  -0.0812 
 601 CL     -25.8584   -13.6372    11.3012 Cl     88 CCL4  -0.0812 
 602 CL     -25.0089    -0.0680    11.0003 Cl     89 CCL4  -0.0812 
 603 C      -24.8432     1.1748    12.2505 C.3    89 CCL4   0.3246 
 604 CL     -26.1698     1.0341    13.4260 Cl     89 CCL4  -0.0812 
 605 CL     -24.9130     2.7660    11.4774 Cl     89 CCL4  -0.0812 
 606 CL     -23.2915     0.9716    13.0989 Cl     89 CCL4  -0.0812 
 607 CL     -20.2138   -13.1258    12.9952 Cl     90 CCL4  -0.0812 
 608 C      -21.1902   -14.6055    12.8975 C.3    90 CCL4   0.3246 
 609 CL     -20.3035   -15.9607    13.6331 Cl     90 CCL4  -0.0812 
 610 CL     -21.5246   -14.9733    11.1986 Cl     90 CCL4  -0.0812 
 611 CL     -22.7114   -14.3724    13.7856 Cl     90 CCL4  -0.0812 
 612 CL     -25.1899    21.7952    13.6912 Cl     91 CCL4  -0.0812 
 613 C      -25.3841    23.1137    14.8689 C.3    91 CCL4   0.3246 
 614 CL     -23.8166    23.9263    15.0956 Cl     91 CCL4  -0.0812 
 615 CL     -25.9195    22.4149    16.4141 Cl     91 CCL4  -0.0812 
 616 CL     -26.6069    24.2617    14.2688 Cl     91 CCL4  -0.0812 
 617 CL     -18.1804     0.9565     8.9722 Cl     92 CCL4  -0.0812 
 618 C      -19.9411     1.1119     8.7412 C.3    92 CCL4   0.3246 
 619 CL     -20.5976    -0.3864     8.0282 Cl     92 CCL4  -0.0812 
 620 CL     -20.2635     2.4812     7.6480 Cl     92 CCL4  -0.0812 
 621 CL     -20.7107     1.4218    10.3164 Cl     92 CCL4  -0.0812 
 622 CL     -26.4308     0.9391     7.8062 Cl     93 CCL4  -0.0812 
 623 C      -24.7678     0.5874     7.2728 C.3    93 CCL4   0.3246 
 624 CL     -23.6204     1.4693     8.3006 Cl     93 CCL4  -0.0812 
 625 CL     -24.5307     1.1246     5.6001 Cl     93 CCL4  -0.0812 
 626 CL     -24.4263    -1.1533     7.3715 Cl     93 CCL4  -0.0812 
 627 CL     -17.1378   -15.6233     3.1829 Cl     94 CCL4  -0.0812 
 628 C      -15.9163   -16.9056     3.3766 C.3    94 CCL4   0.3246 
 629 CL     -15.3980   -17.4417     1.7637 Cl     94 CCL4  -0.0812 
 630 CL     -16.6131   -18.2847     4.2646 Cl     94 CCL4  -0.0812 
 631 CL     -14.5150   -16.2653     4.2652 Cl     94 CCL4  -0.0812 
 632 CL     -18.6135   -16.2202     6.5181 Cl     95 CCL4  -0.0812 
 633 C      -19.1275   -17.5638     7.5625 C.3    95 CCL4   0.3246 
 634 CL     -19.4514   -16.9426     9.1955 Cl     95 CCL4  -0.0812 
 635 CL     -17.8384   -18.7893     7.6581 Cl     95 CCL4  -0.0812 
 636 CL     -20.5981   -18.3024     6.8782 Cl     95 CCL4  -0.0812 
 637 CL     -26.0945   -20.2949     4.3148 Cl     96 CCL4  -0.0812 
 638 C      -25.5121   -19.0484     5.4415 C.3    96 CCL4   0.3246 
 639 CL     -26.8956   -18.2850     6.2625 Cl     96 CCL4  -0.0812 
 640 CL     -24.5944   -17.8000     4.5594 Cl     96 CCL4  -0.0812 
 641 CL     -24.4627   -19.8183     6.6560 Cl     96 CCL4  -0.0812 
 642 CL     -23.1026   -11.6489     6.1358 Cl     97 CCL4  -0.0812 
 643 C      -23.4146   -13.0908     7.1227 C.3    97 CCL4   0.3246 
 644 CL     -24.9058   -12.8448     8.0509 Cl     97 CCL4  -0.0812 
 645 CL     -22.0580   -13.3644     8.2360 Cl     97 CCL4  -0.0812 
 646 CL     -23.5913   -14.5052     6.0623 Cl     97 CCL4  -0.0812 
 647 CL     -30.2316   -14.3110     6.0718 Cl     98 CCL4  -0.0812 
 648 C      -28.7531   -13.9810     7.0103 C.3    98 CCL4   0.3246 
 649 CL     -28.9045   -14.6734     8.6455 Cl     98 CCL4  -0.0812 
 650 CL     -28.5091   -12.2258     7.1414 Cl     98 CCL4  -0.0812 
 651 CL     -27.3532   -14.7057     6.1812 Cl     98 CCL4  -0.0812 
 652 CL     -22.9780   -18.0419     9.5171 Cl     99 CCL4  -0.0812 
 653 C      -24.5670   -17.4608    10.0567 C.3    99 CCL4   0.3246 
 654 CL     -25.1630   -16.2494     8.8997 Cl     99 CCL4  -0.0812 
 655 CL     -24.3979   -16.7223    11.6603 Cl     99 CCL4  -0.0812 
 656 CL     -25.7189   -18.8151    10.1399 Cl     99 CCL4  -0.0812 
 657 CL      -5.1198   -12.3425    13.1163 Cl    100 CCL4  -0.0812 
 658 C       -5.8031   -13.8037    12.3664 C.3   100 CCL4   0.3246 
 659 CL      -7.3127   -14.2582    13.1960 Cl    100 CCL4  -0.0812 
 660 CL      -4.6130   -15.1187    12.5209 Cl    100 CCL4  -0.0812 
 661 CL      -6.1485   -13.5022    10.6468 Cl    100 CCL4  -0.0812 
 662 CL      -4.4610    21.2675    12.0681 Cl    101 CCL4  -0.0812 
 663 C       -6.1972    21.6350    12.1608 C.3   101 CCL4   0.3246 
 664 CL      -6.3954    23.3843    12.3817 Cl    101 CCL4  -0.0812 
 665 CL      -6.9184    20.7937    13.5535 Cl    101 CCL4  -0.0812 
 666 CL      -7.0027    21.1396    10.6506 Cl    101 CCL4  -0.0812 
 667 CL      17.1866     1.4874    11.0155 Cl    102 CCL4  -0.0812 
 668 C       15.6830     1.4389    11.9707 C.3   102 CCL4   0.3246 
 669 CL      14.2805     1.7633    10.9212 Cl    102 CCL4  -0.0812 
 670 CL      15.7635     2.6456    13.2810 Cl    102 CCL4  -0.0812 
 671 CL      15.5218    -0.1832    12.6740 Cl    102 CCL4  -0.0812 
 672 CL     -28.0060     4.1385     2.6400 Cl    103 CCL4  -0.0812 
 673 C      -27.4233     2.4862     2.9569 C.3   103 CCL4   0.3246 
 674 CL     -28.3170     1.3398     1.9235 Cl    103 CCL4  -0.0812 
 675 CL     -27.7223     2.0963     4.6662 Cl    103 CCL4  -0.0812 
 676 CL     -25.6835     2.4004     2.5750 Cl    103 CCL4  -0.0812 
 677 CL      -7.5430   -18.3245     6.8218 Cl    104 CCL4  -0.0812 
 678 C       -6.8152   -16.7289     6.5201 C.3   104 CCL4   0.3246 
 679 CL      -5.6743   -16.3493     7.8330 Cl    104 CCL4  -0.0812 
 680 CL      -8.0991   -15.5008     6.4758 Cl    104 CCL4  -0.0812 
 681 CL      -5.9740   -16.7770     4.9497 Cl    104 CCL4  -0.0812 
 682 CL     -24.9474    25.3033    19.9733 Cl    105 CCL4  -0.0812 
 683 C      -25.3097    23.6739    20.5895 C.3   105 CCL4   0.3246 
 684 CL     -27.0606    23.3588    20.4983 Cl    105 CCL4  -0.0812 
 685 CL     -24.7532    23.5475    22.2749 Cl    105 CCL4  -0.0812 
 686 CL     -24.4325    22.4708    19.6179 Cl    105 CCL4  -0.0812 
 687 CL      -5.3853    22.1596    18.3784 Cl    106 CCL4  -0.0812 
 688 C       -5.6731    20.4096    18.5460 C.3   106 CCL4   0.3246 
 689 CL      -5.6703    19.6434    16.9376 Cl    106 CCL4  -0.0812 
 690 CL      -7.2542    20.1522    19.3281 Cl    106 CCL4  -0.0812 
 691 CL      -4.4075    19.6767    19.5615 Cl    106 CCL4  -0.0812 
 692 CL     -18.5075   -13.8215    17.7961 Cl    107 CCL4  -0.0812 
 693 C      -18.1561   -12.1081    18.1162 C.3   107 CCL4   0.3246 
 694 CL     -17.3375   -11.4037    16.7034 Cl    107 CCL4  -0.0812 
 695 CL     -17.0906   -11.9674    19.5335 Cl    107 CCL4  -0.0812 
 696 CL     -19.6897   -11.2433    18.3797 Cl    107 CCL4  -0.0812 
 697 CL     -22.8775   -10.7229    15.5685 Cl    108 CCL4  -0.0812 
 698 C      -23.4105    -9.0285    15.4542 C.3   108 CCL4   0.3246 
 699 CL     -22.0658    -8.0343    14.8671 Cl    108 CCL4  -0.0812 
 700 CL     -23.9408    -8.4603    17.0578 Cl    108 CCL4  -0.0812 
 701 CL     -24.7528    -8.8921    14.2991 Cl    108 CCL4  -0.0812 
 702 CL     -15.7786   -19.8226    16.8721 Cl    109 CCL4  -0.0812 
 703 C      -17.4764   -19.2862    16.9375 C.3   109 CCL4   0.3246 
 704 CL     -18.3299   -19.8906    15.4939 Cl    109 CCL4  -0.0812 
 705 CL     -17.5387   -17.5066    16.9815 Cl    109 CCL4  -0.0812 
 706 CL     -18.2374   -19.9362    18.4062 Cl    109 CCL4  -0.0812 
 707 CL     -25.5073   -14.7800    16.4649 Cl    110 CCL4  -0.0812 
 708 C      -27.1609   -14.6766    17.1053 C.3   110 CCL4   0.3246 
 709 CL     -28.2496   -13.9615    15.8922 Cl    110 CCL4  -0.0812 
 710 CL     -27.1424   -13.6631    18.5607 Cl    110 CCL4  -0.0812 
 711 CL     -27.7502   -16.2929    17.5396 Cl    110 CCL4  -0.0812 
 712 CL      -8.1364    -2.6324    19.0257 Cl    111 CCL4  -0.0812 
 713 C       -6.6052    -2.4214    18.1366 C.3   111 CCL4   0.3246 
 714 CL      -5.3528    -1.8153    19.2419 Cl    111 CCL4  -0.0812 
 715 CL      -6.8376    -1.2500    16.8144 Cl    111 CCL4  -0.0812 
 716 CL      -6.0664    -3.9665    17.4340 Cl    111 CCL4  -0.0812 
 717 CL     -20.5169    -7.5515     9.0315 Cl    112 CCL4  -0.0812 
 718 C      -21.8088    -8.4311     9.8808 C.3   112 CCL4   0.3246 
 719 CL     -22.3024    -9.8221     8.8985 Cl    112 CCL4  -0.0812 
 720 CL     -23.2172    -7.3679    10.1151 Cl    112 CCL4  -0.0812 
 721 CL     -21.2242    -8.9950    11.4640 Cl    112 CCL4  -0.0812 
 722 CL     -23.2685    -2.7117    17.4137 Cl    113 CCL4  -0.0812 
 723 C      -23.3195    -3.6135    15.8787 C.3   113 CCL4   0.3246 
 724 CL     -24.4018    -5.0178    16.0527 Cl    113 CCL4  -0.0812 
 725 CL     -21.6774    -4.1739    15.4843 Cl    113 CCL4  -0.0812 
 726 CL     -23.9105    -2.5392    14.5851 Cl    113 CCL4  -0.0812 
 727 CL     -27.0983    -2.5175    11.8240 Cl    114 CCL4  -0.0812 
 728 C      -27.3711    -4.0043    12.7507 C.3   114 CCL4   0.3246 
 729 CL     -26.1467    -5.2206    12.3286 Cl    114 CCL4  -0.0812 
 730 CL     -28.9916    -4.6358    12.3783 Cl    114 CCL4  -0.0812 
 731 CL     -27.2736    -3.6425    14.4859 Cl    114 CCL4  -0.0812 
 732 CL     -21.6597    -4.3793     9.2556 Cl    115 CCL4  -0.0812 
 733 C      -22.7271    -3.5912    10.4254 C.3   115 CCL4   0.3246 
 734 CL     -22.7299    -4.5113    11.9450 Cl    115 CCL4  -0.0812 
 735 CL     -24.3740    -3.5368     9.7648 Cl    115 CCL4  -0.0812 
 736 CL     -22.1358    -1.9521    10.7647 Cl    115 CCL4  -0.0812 
 737 CL     -20.9205    -5.4811     3.8374 Cl    116 CCL4  -0.0812 
 738 C      -20.8993    -4.2283     5.0999 C.3   116 CCL4   0.3246 
 739 CL     -22.5028    -4.1050     5.8500 Cl    116 CCL4  -0.0812 
 740 CL     -20.4603    -2.6644     4.3751 Cl    116 CCL4  -0.0812 
 741 CL     -19.6886    -4.6883     6.3246 Cl    116 CCL4  -0.0812 
 742 CL     -25.9341   -10.7684     4.2644 Cl    117 CCL4  -0.0812 
 743 C      -25.4377    -9.1866     3.6206 C.3   117 CCL4   0.3246 
 744 CL     -26.8711    -8.1507     3.4572 Cl    117 CCL4  -0.0812 
 745 CL     -24.6708    -9.4044     2.0298 Cl    117 CCL4  -0.0812 
 746 CL     -24.2888    -8.4157     4.7392 Cl    117 CCL4  -0.0812 
 747 CL     -27.6743    -1.3331     4.5242 Cl    118 CCL4  -0.0812 
 748 C      -26.5749    -2.3032     3.5180 C.3   118 CCL4   0.3246 
 749 CL     -25.3622    -1.2497     2.7622 Cl    118 CCL4  -0.0812 
 750 CL     -27.5046    -3.1316     2.2470 Cl    118 CCL4  -0.0812 
 751 CL     -25.7639    -3.5105     4.5369 Cl    118 CCL4  -0.0812 
 752 CL      15.7059    -2.9814     6.6129 Cl    119 CCL4  -0.0812 
 753 C       16.2985    -1.8672     7.8713 C.3   119 CCL4   0.3246 
 754 CL      15.3219    -2.0901     9.3423 Cl    119 CCL4  -0.0812 
 755 CL      16.1442    -0.1820     7.3069 Cl    119 CCL4  -0.0812 
 756 CL      18.0047    -2.2465     8.2256 Cl    119 CCL4  -0.0812 
 757 CL     -27.0507    -8.3221     7.4010 Cl    120 CCL4  -0.0812 
 758 C      -27.0151    -6.5432     7.4522 C.3   120 CCL4   0.3246 
 759 CL     -27.9366    -5.8965     6.0729 Cl    120 CCL4  -0.0812 
 760 CL     -25.3275    -5.9838     7.3736 Cl    120 CCL4  -0.0812 
 761 CL     -27.7560    -5.9850     8.9724 Cl    120 CCL4  -0.0812 
 762 CL      -7.7527    -9.2724    16.9087 Cl    121 CCL4  -0.0812 
 763 C       -8.2862   -10.2504    18.2964 C.3   121 CCL4   0.3246 
 764 CL      -7.7559    -9.4635    19.7956 Cl    121 CCL4  -0.0812 
 765 CL      -7.5699   -11.8773    18.1989 Cl    121 CCL4  -0.0812 
 766 CL     -10.0561   -10.3883    18.3056 Cl    121 CCL4  -0.0812 
 767 CL      -7.8036    -5.9366    14.4545 Cl    122 CCL4  -0.0812 
 768 C       -8.7468    -4.4460    14.2033 C.3   122 CCL4   0.3246 
 769 CL     -10.2012    -4.8262    13.2471 Cl    122 CCL4  -0.0812 
 770 CL      -7.7380    -3.2666    13.3290 Cl    122 CCL4  -0.0812 
 771 CL      -9.2267    -3.7790    15.7753 Cl    122 CCL4  -0.0812 
 772 CL     -18.2296   -11.4048     3.2574 Cl    123 CCL4  -0.0812 
 773 C      -19.8959   -11.2302     3.8613 C.3   123 CCL4   0.3246 
 774 CL     -20.5443   -12.8436     4.2431 Cl    123 CCL4  -0.0812 
 775 CL     -20.8960   -10.4688     2.6012 Cl    123 CCL4  -0.0812 
 776 CL     -19.9038   -10.1898     5.3105 Cl    123 CCL4  -0.0812 
 777 CL     -18.7788    -5.1966    18.2573 Cl    124 CCL4  -0.0812 
 778 C      -19.2182    -6.7829    17.5776 C.3   124 CCL4   0.3246 
 779 CL     -19.0344    -6.7215    15.8199 Cl    124 CCL4  -0.0812 
 780 CL     -20.9047    -7.1342    18.0101 Cl    124 CCL4  -0.0812 
 781 CL     -18.1626    -8.0598    18.2235 Cl    124 CCL4  -0.0812 
 782 CL     -19.7338     0.6883    19.5223 Cl    125 CCL4  -0.0812 
 783 C      -19.5247    -1.0544    19.2531 C.3   125 CCL4   0.3246 
 784 CL     -17.8393    -1.4773    19.6227 Cl    125 CCL4  -0.0812 
 785 CL     -19.8410    -1.4545    17.5482 Cl    125 CCL4  -0.0812 
 786 CL     -20.6364    -1.9723    20.3000 Cl    125 CCL4  -0.0812 
 787 CL     -12.0449    -7.6789    19.6401 Cl    126 CCL4  -0.0812 
 788 C      -11.0010    -6.2560    19.4166 C.3   126 CCL4   0.3246 
 789 CL     -12.0104    -4.8211    19.1292 Cl    126 CCL4  -0.0812 
 790 CL      -9.9244    -6.5053    18.0234 Cl    126 CCL4  -0.0812 
 791 CL     -10.0326    -6.0066    20.8836 Cl    126 CCL4  -0.0812 
 792 CL      15.4009    -8.4541    21.8071 Cl    127 CCL4  -0.0812 
 793 C       14.5607    -7.3720    20.6732 C.3   127 CCL4   0.3246 
 794 CL      13.8726    -5.9763    21.5374 Cl    127 CCL4  -0.0812 
 795 CL      13.2568    -8.2952    19.8908 Cl    127 CCL4  -0.0812 
 796 CL      15.7086    -6.7936    19.4458 Cl    127 CCL4  -0.0812 
 797 CL     -29.7005    -9.4759    17.1620 Cl    128 CCL4  -0.0812 
 798 C      -27.9697    -9.0885    17.2332 C.3   128 CCL4   0.3246 
 799 CL     -27.0348   -10.4761    16.6317 Cl    128 CCL4  -0.0812 
 800 CL     -27.5021    -8.7769    18.9245 Cl    128 CCL4  -0.0812 
 801 CL     -27.6365    -7.6487    16.2350 Cl    128 CCL4  -0.0812 
 802 CL     -12.4073    -9.9616     8.3095 Cl    129 CCL4  -0.0812 
 803 C      -12.1329    -8.2702     8.7880 C.3   129 CCL4   0.3246 
 804 CL     -13.6913    -7.4070     8.7919 Cl    129 CCL4  -0.0812 
 805 CL     -11.0272    -7.4903     7.6263 Cl    129 CCL4  -0.0812 
 806 CL     -11.4255    -8.2293    10.4230 Cl    129 CCL4  -0.0812 
 807 CL     -14.6047   -14.1177    13.3028 Cl    130 CCL4  -0.0812 
 808 C      -15.9575   -15.2662    13.4586 C.3   130 CCL4   0.3246 
 809 CL     -17.2157   -14.5654    14.5062 Cl    130 CCL4  -0.0812 
 810 CL     -15.3717   -16.7865    14.1778 Cl    130 CCL4  -0.0812 
 811 CL     -16.6377   -15.5987    11.8475 Cl    130 CCL4  -0.0812 
 812 CL      -9.7687   -12.9665     8.5496 Cl    131 CCL4  -0.0812 
 813 C       -8.8877   -11.6859     7.6770 C.3   131 CCL4   0.3246 
 814 CL      -7.2195   -12.2026     7.3659 Cl    131 CCL4  -0.0812 
 815 CL      -8.8525   -10.2057     8.6588 Cl    131 CCL4  -0.0812 
 816 CL      -9.6945   -11.3556     6.1266 Cl    131 CCL4  -0.0812 
 817 CL     -11.1846   -18.5033    11.4176 Cl    132 CCL4  -0.0812 
 818 C      -10.4565   -16.9425    11.8715 C.3   132 CCL4   0.3246 
 819 CL      -9.7891   -17.0794    13.5163 Cl    132 CCL4  -0.0812 
 820 CL     -11.7014   -15.6743    11.8293 Cl    132 CCL4  -0.0812 
 821 CL      -9.1623   -16.5351    10.7164 Cl    132 CCL4  -0.0812 
 822 CL      -9.8088    -8.8264    13.6430 Cl    133 CCL4  -0.0812 
 823 C       -9.9848   -10.5817    13.4171 C.3   133 CCL4   0.3246 
 824 CL     -11.6951   -10.9775    13.1294 Cl    133 CCL4  -0.0812 
 825 CL      -9.3968   -11.4364    14.8573 Cl    133 CCL4  -0.0812 
 826 CL      -9.0319   -11.1026    12.0140 Cl    133 CCL4  -0.0812 
 827 CL      -9.8114    22.6364     3.5896 Cl    134 CCL4  -0.0812 
 828 C      -10.9451    21.2935     3.3051 C.3   134 CCL4   0.3246 
 829 CL     -11.3962    20.5761     4.8693 Cl    134 CCL4  -0.0812 
 830 CL     -10.1659    20.0578     2.2866 Cl    134 CCL4  -0.0812 
 831 CL     -12.4166    21.9009     2.5051 Cl    134 CCL4  -0.0812 
 832 CL     -15.2825   -16.2370     7.6993 Cl    135 CCL4  -0.0812 
 833 C      -14.0023   -17.3679     8.1937 C.3   135 CCL4   0.3246 
 834 CL     -13.9311   -18.7349     7.0580 Cl    135 CCL4  -0.0812 
 835 CL     -14.3450   -17.9599     9.8364 Cl    135 CCL4  -0.0812 
 836 CL     -12.4376   -16.5213     8.1916 Cl    135 CCL4  -0.0812 
 837 CL     -13.4965    -2.2540    13.4842 Cl    136 CCL4  -0.0812 
 838 C      -12.2454    -1.2173    14.2004 C.3   136 CCL4   0.3246 
 839 CL     -11.9523    -1.7444    15.8721 Cl    136 CCL4  -0.0812 
 840 CL     -12.8210     0.4641    14.2047 Cl    136 CCL4  -0.0812 
 841 CL     -10.7609    -1.3493    13.2327 Cl    136 CCL4  -0.0812 
 842 CL     -13.0045   -12.0440     5.4590 Cl    137 CCL4  -0.0812 
 843 C      -14.5901   -11.9079     4.6758 C.3   137 CCL4   0.3246 
 844 CL     -15.7219   -13.0018     5.5033 Cl    137 CCL4  -0.0812 
 845 CL     -14.4404   -12.4030     2.9713 Cl    137 CCL4  -0.0812 
 846 CL     -15.1849   -10.2338     4.7602 Cl    137 CCL4  -0.0812 
 847 CL     -11.1913   -14.0226    18.1373 Cl    138 CCL4  -0.0812 
 848 C      -12.2020   -13.7122    16.7044 C.3   138 CCL4   0.3246 
 849 CL     -13.7213   -14.6240    16.8374 Cl    138 CCL4  -0.0812 
 850 CL     -11.3291   -14.2207    15.2447 Cl    138 CCL4  -0.0812 
 851 CL     -12.5935   -11.9818    16.5910 Cl    138 CCL4  -0.0812 
 852 CL     -15.0967   -10.3194    14.1841 Cl    139 CCL4  -0.0812 
 853 C      -16.3542   -10.0591    12.9604 C.3   139 CCL4   0.3246 
 854 CL     -17.1245   -11.6089    12.5906 Cl    139 CCL4  -0.0812 
 855 CL     -15.6055    -9.4342    11.4749 Cl    139 CCL4  -0.0812 
 856 CL     -17.5697    -8.9195    13.5663 Cl    139 CCL4  -0.0812 
 857 CL     -12.2024   -17.6314    17.9841 Cl    140 CCL4  -0.0812 
 858 C      -11.1630   -19.0573    17.7856 C.3   140 CCL4   0.3246 
 859 CL     -11.2925   -19.6502    16.1136 Cl    140 CCL4  -0.0812 
 860 CL     -11.6831   -20.3280    18.9153 Cl    140 CCL4  -0.0812 
 861 CL      -9.4757   -18.5940    18.1171 Cl    140 CCL4  -0.0812 
 862 CL     -17.3006     1.4502    17.0013 Cl    141 CCL4  -0.0812 
 863 C      -15.5971     1.8527    17.3024 C.3   141 CCL4   0.3246 
 864 CL     -15.4609     2.6952    18.8633 Cl    141 CCL4  -0.0812 
 865 CL     -14.9948     2.9134    16.0103 Cl    141 CCL4  -0.0812 
 866 CL     -14.6346     0.3574    17.3525 Cl    141 CCL4  -0.0812 
 867 CL     -13.1025    -5.3807    15.7061 Cl    142 CCL4  -0.0812 
 868 C      -13.7266    -6.9821    15.2545 C.3   142 CCL4   0.3246 
 869 CL     -12.6774    -8.2170    15.9913 Cl    142 CCL4  -0.0812 
 870 CL     -13.7012    -7.1521    13.4836 Cl    142 CCL4  -0.0812 
 871 CL     -15.3876    -7.1537    15.8719 Cl    142 CCL4  -0.0812 
 872 CL     -18.4704    -4.0621    10.6875 Cl    143 CCL4  -0.0812 
 873 C      -18.0692    -5.5131    11.6346 C.3   143 CCL4   0.3246 
 874 CL     -19.5247    -6.0559    12.4920 Cl    143 CCL4  -0.0812 
 875 CL     -16.7830    -5.1205    12.8035 Cl    143 CCL4  -0.0812 
 876 CL     -17.4993    -6.7899    10.5396 Cl    143 CCL4  -0.0812 
 877 CL     -16.9353    -1.0126    12.2175 Cl    144 CCL4  -0.0812 
 878 C      -17.9644    -0.9590    13.6694 C.3   144 CCL4   0.3246 
 879 CL     -18.5989     0.6857    13.9010 Cl    144 CCL4  -0.0812 
 880 CL     -17.0197    -1.4588    15.0959 Cl    144 CCL4  -0.0812 
 881 CL     -19.3439    -2.0629    13.4632 Cl    144 CCL4  -0.0812 
 882 CL     -19.2950    13.5510   -17.5814 Cl    145 CCL4  -0.0812 
 883 C      -18.5127    13.3947   -15.9969 C.3   145 CCL4   0.3246 
 884 CL     -18.5830    11.7046   -15.4469 Cl    145 CCL4  -0.0812 
 885 CL     -19.3498    14.4329   -14.8261 Cl    145 CCL4  -0.0812 
 886 CL     -16.8079    13.8992   -16.1220 Cl    145 CCL4  -0.0812 
 887 CL     -21.3461     3.9841   -12.1597 Cl    146 CCL4  -0.0812 
 888 C      -21.9977     4.8243   -13.5815 C.3   146 CCL4   0.3246 
 889 CL     -23.0435     3.7172   -14.4964 Cl    146 CCL4  -0.0812 
 890 CL     -20.6623     5.3920   -14.6148 Cl    146 CCL4  -0.0812 
 891 CL     -22.9445     6.2224   -13.0411 Cl    146 CCL4  -0.0812 
 892 CL     -27.6190    14.5925   -13.2702 Cl    147 CCL4  -0.0812 
 893 C      -26.7264    13.2080   -12.6104 C.3   147 CCL4   0.3246 
 894 CL     -26.0953    13.6377   -11.0041 Cl    147 CCL4  -0.0812 
 895 CL     -25.3747    12.8366   -13.7015 Cl    147 CCL4  -0.0812 
 896 CL     -27.8097    11.8027   -12.4885 Cl    147 CCL4  -0.0812 
 897 CL     -20.0704    10.4916     3.5622 Cl    148 CCL4  -0.0812 
 898 C      -21.0183     9.4027     2.5263 C.3   148 CCL4   0.3246 
 899 CL     -20.5713     9.6415     0.8183 Cl    148 CCL4  -0.0812 
 900 CL     -22.7487     9.7579     2.7491 Cl    148 CCL4  -0.0812 
 901 CL     -20.6929     7.7207     3.0150 Cl    148 CCL4  -0.0812 
 902 CL     -21.9288    12.2987   -13.2913 Cl    149 CCL4  -0.0812 
 903 C      -22.2020    10.7035   -12.5596 C.3   149 CCL4   0.3246 
 904 CL     -20.7616    10.2447   -11.6258 Cl    149 CCL4  -0.0812 
 905 CL     -22.4559     9.5142   -13.8604 Cl    149 CCL4  -0.0812 
 906 CL     -23.5996    10.7669   -11.4573 Cl    149 CCL4  -0.0812 
 907 CL     -27.6878     4.7264   -14.9626 Cl    150 CCL4  -0.0812 
 908 C      -28.9232     4.8042   -16.2421 C.3   150 CCL4   0.3246 
 909 CL     -28.7765     3.3624   -17.2755 Cl    150 CCL4  -0.0812 
 910 CL     -28.6720     6.2514   -17.2456 Cl    150 CCL4  -0.0812 
 911 CL     -30.5468     4.8844   -15.5212 Cl    150 CCL4  -0.0812 
 912 CL     -23.2397     3.8751    -9.0399 Cl    151 CCL4  -0.0812 
 913 C      -23.3944     2.6011    -7.8055 C.3   151 CCL4   0.3246 
 914 CL     -22.1059     1.3961    -8.0250 Cl    151 CCL4  -0.0812 
 915 CL     -24.9828     1.8151    -7.9482 Cl    151 CCL4  -0.0812 
 916 CL     -23.2260     3.3332    -6.1964 Cl    151 CCL4  -0.0812 
 917 CL     -25.8394     4.8116   -12.0365 Cl    152 CCL4  -0.0812 
 918 C      -26.9058     5.6579   -10.8973 C.3   152 CCL4   0.3246 
 919 CL     -26.1108     7.1485   -10.3492 Cl    152 CCL4  -0.0812 
 920 CL     -27.1937     4.5976    -9.4996 Cl    152 CCL4  -0.0812 
 921 CL     -28.4548     6.0392   -11.6916 Cl    152 CCL4  -0.0812 
 922 CL      -6.8530     2.4591    23.1753 Cl    153 CCL4  -0.0812 
 923 C       -7.2921     2.2163    21.4660 C.3   153 CCL4   0.3246 
 924 CL      -8.5509     0.9602    21.3567 Cl    153 CCL4  -0.0812 
 925 CL      -5.8574     1.6953    20.5519 Cl    153 CCL4  -0.0812 
 926 CL      -7.8859     3.7421    20.7666 Cl    153 CCL4  -0.0812 
 927 CL     -23.2110    15.0501     2.6509 Cl    154 CCL4  -0.0812 
 928 C      -23.2680    14.3180     1.0363 C.3   154 CCL4   0.3246 
 929 CL     -21.9849    13.0945     0.8848 Cl    154 CCL4  -0.0812 
 930 CL     -23.0379    15.5898    -0.1861 Cl    154 CCL4  -0.0812 
 931 CL     -24.8416    13.5367     0.7775 Cl    154 CCL4  -0.0812 
 932 CL      15.9842    14.8181     4.1801 Cl    155 CCL4  -0.0812 
 933 C       16.3693    13.4988     3.0511 C.3   155 CCL4   0.3246 
 934 CL      17.7256    12.5490     3.6887 Cl    155 CCL4  -0.0812 
 935 CL      16.8070    14.1820     1.4700 Cl    155 CCL4  -0.0812 
 936 CL      14.9383    12.4621     2.8542 Cl    155 CCL4  -0.0812 
 937 CL     -20.6455     9.8920    22.0402 Cl    156 CCL4  -0.0812 
 938 C      -20.5046     8.1235    22.1140 C.3   156 CCL4   0.3246 
 939 CL     -21.9673     7.4597    22.8858 Cl    156 CCL4  -0.0812 
 940 CL     -19.0449     7.6690    23.0336 Cl    156 CCL4  -0.0812 
 941 CL     -20.3764     7.4766    20.4578 Cl    156 CCL4  -0.0812 
 942 CL     -22.4967    13.6273    20.2758 Cl    157 CCL4  -0.0812 
 943 C      -23.5069    12.7616    21.4549 C.3   157 CCL4   0.3246 
 944 CL     -24.9823    13.7040    21.7704 Cl    157 CCL4  -0.0812 
 945 CL     -22.6207    12.5738    22.9872 Cl    157 CCL4  -0.0812 
 946 CL     -23.9424    11.1601    20.8080 Cl    157 CCL4  -0.0812 
 947 CL     -28.6385    11.1150    20.4293 Cl    158 CCL4  -0.0812 
 948 C      -29.5279    11.7305    21.8397 C.3   158 CCL4   0.3246 
 949 CL     -29.8702    10.3867    22.9496 Cl    158 CCL4  -0.0812 
 950 CL     -31.0690    12.4458    21.3073 Cl    158 CCL4  -0.0812 
 951 CL     -28.5466    12.9626    22.6697 Cl    158 CCL4  -0.0812 
 952 CL     -25.8256     7.5102   -15.7018 Cl    159 CCL4  -0.0812 
 953 C      -26.6228     8.7846   -14.7582 C.3   159 CCL4   0.3246 
 954 CL     -26.5253    10.3017   -15.6785 Cl    159 CCL4  -0.0812 
 955 CL     -25.8061     8.9554   -13.1980 Cl    159 CCL4  -0.0812 
 956 CL     -28.3263     8.3660   -14.4664 Cl    159 CCL4  -0.0812 
 957 CL      -5.7292    12.7016   -10.9510 Cl    160 CCL4  -0.0812 
 958 C       -6.3049    11.4736   -12.1036 C.3   160 CCL4   0.3246 
 959 CL      -7.9462    10.9735   -11.6528 Cl    160 CCL4  -0.0812 
 960 CL      -5.2386    10.0522   -12.0487 Cl    160 CCL4  -0.0812 
 961 CL      -6.3203    12.1397   -13.7543 Cl    160 CCL4  -0.0812 
 962 CL      -5.8071     4.1007   -11.5428 Cl    161 CCL4  -0.0812 
 963 C       -6.7200     5.5831   -11.8958 C.3   161 CCL4   0.3246 
 964 CL      -5.9888     6.4102   -13.2892 Cl    161 CCL4  -0.0812 
 965 CL      -6.6842     6.6659   -10.4842 Cl    161 CCL4  -0.0812 
 966 CL      -8.4073     5.1704   -12.2883 Cl    161 CCL4  -0.0812 
 967 CL      -7.1447    12.0288    -6.5002 Cl    162 CCL4  -0.0812 
 968 C       -8.1379    10.5522    -6.6136 C.3   162 CCL4   0.3246 
 969 CL      -8.5749    10.2643    -8.3099 Cl    162 CCL4  -0.0812 
 970 CL      -9.6141    10.7771    -5.6418 Cl    162 CCL4  -0.0812 
 971 CL      -7.2290     9.1567    -5.9923 Cl    162 CCL4  -0.0812 
 972 CL      -7.9557     6.4343    23.2218 Cl    163 CCL4  -0.0812 
 973 C       -7.0474     7.6449    22.2847 C.3   163 CCL4   0.3246 
 974 CL      -5.4941     6.9464    21.7796 Cl    163 CCL4  -0.0812 
 975 CL      -6.7275     9.0741    23.2965 Cl    163 CCL4  -0.0812 
 976 CL      -7.9811     8.1144    20.8418 Cl    163 CCL4  -0.0812 
 977 CL     -27.8174     6.8130    -4.2355 Cl    164 CCL4  -0.0812 
 978 C      -27.1979     5.6699    -5.4490 C.3   164 CCL4   0.3246 
 979 CL     -28.5684     4.7676    -6.1223 Cl    164 CCL4  -0.0812 
 980 CL     -26.0849     4.5175    -4.6809 Cl    164 CCL4  -0.0812 
 981 CL     -26.3534     6.5752    -6.7248 Cl    164 CCL4  -0.0812 
 982 CL     -18.2941    11.9778    -1.5504 Cl    165 CCL4  -0.0812 
 983 C      -17.0487    11.5155    -0.3748 C.3   165 CCL4   0.3246 
 984 CL     -17.7129    11.6378     1.2646 Cl    165 CCL4  -0.0812 
 985 CL     -15.6447    12.5887    -0.4930 Cl    165 CCL4  -0.0812 
 986 CL     -16.5397     9.8466    -0.7027 Cl    165 CCL4  -0.0812 
 987 CL      -4.8539     5.8302    -5.6961 Cl    166 CCL4  -0.0812 
 988 C       -5.7118     4.4387    -6.3914 C.3   166 CCL4   0.3246 
 989 CL      -5.0125     4.0311    -7.9787 Cl    166 CCL4  -0.0812 
 990 CL      -7.4252     4.8596    -6.5939 Cl    166 CCL4  -0.0812 
 991 CL      -5.5749     3.0539    -5.2782 Cl    166 CCL4  -0.0812 
 992 CL      14.3995     5.1873    -2.6128 Cl    167 CCL4  -0.0812 
 993 C       15.3829     3.7379    -2.3060 C.3   167 CCL4   0.3246 
 994 CL      14.6234     2.7541    -1.0327 Cl    167 CCL4  -0.0812 
 995 CL      17.0220     4.2193    -1.8043 Cl    167 CCL4  -0.0812 
 996 CL      15.4826     2.7927    -3.8090 Cl    167 CCL4  -0.0812 
 997 CL     -20.6657    10.4681    -8.0397 Cl    168 CCL4  -0.0812 
 998 C      -19.5884    11.2402    -6.8519 C.3   168 CCL4   0.3246 
 999 CL     -18.1455    11.8957    -7.6656 Cl    168 CCL4  -0.0812 
1000 CL     -19.0960    10.0427    -5.6312 Cl    168 CCL4  -0.0812 
1001 CL     -20.4556    12.5591    -6.0382 Cl    168 CCL4  -0.0812 
1002 CL     -22.2443    13.6956    -8.8522 Cl    169 CCL4  -0.0812 
1003 C      -23.5470    14.4142    -7.8749 C.3   169 CCL4   0.3246 
1004 CL     -22.8943    15.0185    -6.3322 Cl    169 CCL4  -0.0812 
1005 CL     -24.7771    13.1730    -7.5394 Cl    169 CCL4  -0.0812 
1006 CL     -24.2802    15.7643    -8.7689 Cl    169 CCL4  -0.0812 
1007 CL     -17.0592     5.6534    -9.7164 Cl    170 CCL4  -0.0812 
1008 C      -18.3558     6.2551    -8.6557 C.3   170 CCL4   0.3246 
1009 CL     -19.5403     7.1640    -9.6335 Cl    170 CCL4  -0.0812 
1010 CL     -17.6541     7.3083    -7.4034 Cl    170 CCL4  -0.0812 
1011 CL     -19.2013     4.8857    -7.8928 Cl    170 CCL4  -0.0812 
1012 CL     -20.9326     7.6156    -2.8827 Cl    171 CCL4  -0.0812 
1013 C      -20.9835     6.2229    -3.9928 C.3   171 CCL4   0.3246 
1014 CL     -19.3205     5.6479    -4.2728 Cl    171 CCL4  -0.0812 
1015 CL     -21.6999     6.7257    -5.5423 Cl    171 CCL4  -0.0812 
1016 CL     -21.9397     4.9095    -3.2694 Cl    171 CCL4  -0.0812 
1017 CL     -15.3141    15.0515    -5.5550 Cl    172 CCL4  -0.0812 
1018 C      -14.9604    14.2403    -4.0084 C.3   172 CCL4   0.3246 
1019 CL     -15.8631    12.7047    -3.9399 Cl    172 CCL4  -0.0812 
1020 CL     -15.4379    15.3068    -2.6670 Cl    172 CCL4  -0.0812 
1021 CL     -13.2183    13.8996    -3.8955 Cl    172 CCL4  -0.0812 
1022 CL     -24.1920    10.8426    -1.7358 Cl    173 CCL4  -0.0812 
1023 C      -24.3202    11.1196    -3.4878 C.3   173 CCL4   0.3246 
1024 CL     -25.7971    10.3561    -4.1258 Cl    173 CCL4  -0.0812 
1025 CL     -22.9064    10.4285    -4.3167 Cl    173 CCL4  -0.0812 
1026 CL     -24.3860    12.8643    -3.8086 Cl    173 CCL4  -0.0812 
1027 CL      -9.1406    13.9783    -3.4527 Cl    174 CCL4  -0.0812 
1028 C       -7.6043    13.6744    -2.6111 C.3   174 CCL4   0.3246 
1029 CL      -6.3060    14.5645    -3.4296 Cl    174 CCL4  -0.0812 
1030 CL      -7.2284    11.9349    -2.6790 Cl    174 CCL4  -0.0812 
1031 CL      -7.7063    14.1939    -0.9114 Cl    174 CCL4  -0.0812 
1032 CL     -27.2646    10.2866    -9.3748 Cl    175 CCL4  -0.0812 
1033 C      -28.9107     9.7729    -8.9329 C.3   175 CCL4   0.3246 
1034 CL     -30.0556    10.1827   -10.2298 Cl    175 CCL4  -0.0812 
1035 CL     -29.4040    10.6050    -7.4410 Cl    175 CCL4  -0.0812 
1036 CL     -28.9402     8.0161    -8.6634 Cl    175 CCL4  -0.0812 
1037 CL     -11.0961     3.2094   -10.7443 Cl    176 CCL4  -0.0812 
1038 C       -9.9150     1.9360   -10.3409 C.3   176 CCL4   0.3246 
1039 CL     -10.6365     0.7641    -9.2076 Cl    176 CCL4  -0.0812 
1040 CL      -8.4895     2.6759    -9.5742 Cl    176 CCL4  -0.0812 
1041 CL      -9.4113     1.1174   -11.8397 Cl    176 CCL4  -0.0812 
1042 CL     -24.7727     4.8655    -1.0758 Cl    177 CCL4  -0.0812 
1043 C      -24.8580     6.6424    -1.2287 C.3   177 CCL4   0.3246 
1044 CL     -23.6037     7.3943    -0.2091 Cl    177 CCL4  -0.0812 
1045 CL     -26.4637     7.2067    -0.7078 Cl    177 CCL4  -0.0812 
1046 CL     -24.5992     7.1422    -2.9218 Cl    177 CCL4  -0.0812 
1047 CL      14.1547     8.5721     3.2063 Cl    178 CCL4  -0.0812 
1048 C       15.8017     7.8995     3.1477 C.3   178 CCL4   0.3246 
1049 CL      16.9817     9.2191     3.0772 Cl    178 CCL4  -0.0812 
1050 CL      16.0089     6.9200     1.6805 Cl    178 CCL4  -0.0812 
1051 CL      16.0940     6.8959     4.5937 Cl    178 CCL4  -0.0812 
1052 CL     -20.9326    17.3530   -13.2617 Cl    179 CCL4  -0.0812 
1053 C      -22.5675    16.7857   -13.6797 C.3   179 CCL4   0.3246 
1054 CL     -22.5916    16.1835   -15.3570 Cl    179 CCL4  -0.0812 
1055 CL     -23.7546    18.1045   -13.5016 Cl    179 CCL4  -0.0812 
1056 CL     -23.0314    15.4732   -12.5761 Cl    179 CCL4  -0.0812 
1057 CL      -7.3327    17.5429    -2.1441 Cl    180 CCL4  -0.0812 
1058 C       -6.3238    18.4192    -0.9790 C.3   180 CCL4   0.3246 
1059 CL      -6.6403    17.8076     0.6597 Cl    180 CCL4  -0.0812 
1060 CL      -6.7245    20.1474    -1.0488 Cl    180 CCL4  -0.0812 
1061 CL      -4.6044    18.2034    -1.3677 Cl    180 CCL4  -0.0812 
1062 CL     -28.8674    18.2672   -16.6994 Cl    181 CCL4  -0.0812 
1063 C      -27.2486    18.5105   -15.9994 C.3   181 CCL4   0.3246 
1064 CL     -26.4677    19.9040   -16.7950 Cl    181 CCL4  -0.0812 
1065 CL     -26.2617    17.0513   -16.2615 Cl    181 CCL4  -0.0812 
1066 CL     -27.4092    18.8036   -14.2498 Cl    181 CCL4  -0.0812 
1067 CL      -8.0268    15.4436    -9.1444 Cl    182 CCL4  -0.0812 
1068 C       -8.8954    15.8407    -7.6457 C.3   182 CCL4   0.3246 
1069 CL      -7.7075    16.2270    -6.3807 Cl    182 CCL4  -0.0812 
1070 CL      -9.8837    14.4459    -7.1400 Cl    182 CCL4  -0.0812 
1071 CL      -9.9391    17.2518    -7.9289 Cl    182 CCL4  -0.0812 
1072 CL     -21.2144    18.6986    -6.5878 Cl    183 CCL4  -0.0812 
1073 C      -19.8429    18.1521    -7.5897 C.3   183 CCL4   0.3246 
1074 CL     -20.2794    16.6191    -8.3788 Cl    183 CCL4  -0.0812 
1075 CL     -18.4200    17.8937    -6.5557 Cl    183 CCL4  -0.0812 
1076 CL     -19.4922    19.3767    -8.8320 Cl    183 CCL4  -0.0812 
1077 CL     -26.3059    16.6965    -0.8013 Cl    184 CCL4  -0.0812 
1078 C      -26.8938    15.8204    -2.2347 C.3   184 CCL4   0.3246 
1079 CL     -28.4854    16.4573    -2.7120 Cl    184 CCL4  -0.0812 
1080 CL     -27.0613    14.0892    -1.8717 Cl    184 CCL4  -0.0812 
1081 CL     -25.7454    16.0505    -3.5755 Cl    184 CCL4  -0.0812 
1082 CL     -19.3155    15.2967    -0.7620 Cl    185 CCL4  -0.0812 
1083 C      -20.0027    15.1645    -2.4025 C.3   185 CCL4   0.3246 
1084 CL     -18.7053    14.8579    -3.5754 Cl    185 CCL4  -0.0812 
1085 CL     -20.8151    16.6827    -2.8476 Cl    185 CCL4  -0.0812 
1086 CL     -21.1813    13.8361    -2.4800 Cl    185 CCL4  -0.0812 
1087 CL     -30.3077    15.1289    -6.1804 Cl    186 CCL4  -0.0812 
1088 C      -28.6143    14.9420    -6.6970 C.3   186 CCL4   0.3246 
1089 CL     -28.5718    14.4053    -8.3951 Cl    186 CCL4  -0.0812 
1090 CL     -27.8281    13.7107    -5.6738 Cl    186 CCL4  -0.0812 
1091 CL     -27.7455    16.4902    -6.5364 Cl    186 CCL4  -0.0812 
1092 CL     -14.5958    18.0239    -0.5041 Cl    187 CCL4  -0.0812 
1093 C      -15.2789    18.0671     1.1407 C.3   187 CCL4   0.3246 
1094 CL     -13.9717    18.3451     2.3157 Cl    187 CCL4  -0.0812 
1095 CL     -16.1020    16.5270     1.4930 Cl    187 CCL4  -0.0812 
1096 CL     -16.4561    19.3957     1.2667 Cl    187 CCL4  -0.0812 
1097 CL     -12.9605    17.1465   -17.5946 Cl    188 CCL4  -0.0812 
1098 C      -12.6385    17.8618   -15.9982 C.3   188 CCL4   0.3246 
1099 CL     -12.7996    19.6339   -16.1094 Cl    188 CCL4  -0.0812 
1100 CL     -10.9834    17.4441   -15.4945 Cl    188 CCL4  -0.0812 
1101 CL     -13.7996    17.2318   -14.8012 Cl    188 CCL4  -0.0812 
1102 CL     -16.5474    11.1599   -12.6158 Cl    189 CCL4  -0.0812 
1103 C      -16.4949     9.5507   -11.8588 C.3   189 CCL4   0.3246 
1104 CL     -17.2510     9.6518   -10.2588 Cl    189 CCL4  -0.0812 
1105 CL     -14.8015     9.0194   -11.6747 Cl    189 CCL4  -0.0812 
1106 CL     -17.3836     8.3796   -12.8612 Cl    189 CCL4  -0.0812 
1107 CL      -8.0790    10.9186     1.9154 Cl    190 CCL4  -0.0812 
1108 C       -8.2558     9.7368     3.2338 C.3   190 CCL4   0.3246 
1109 CL      -9.9840     9.5636     3.6478 Cl    190 CCL4  -0.0812 
1110 CL      -7.3305    10.3112     4.6417 Cl    190 CCL4  -0.0812 
1111 CL      -7.6045     8.1699     2.6974 Cl    190 CCL4  -0.0812 
1112 CL      -9.3619    11.3254    23.9999 Cl    191 CCL4  -0.0812 
1113 C       -9.4201    12.7615    22.9561 C.3   191 CCL4   0.3246 
1114 CL      -7.8298    13.5634    22.9575 Cl    191 CCL4  -0.0812 
1115 CL     -10.6612    13.8789    23.5808 Cl    191 CCL4  -0.0812 
1116 CL      -9.8425    12.2687    21.2962 Cl    191 CCL4  -0.0812 
1117 CL     -11.7579     7.5359   -13.9583 Cl    192 CCL4  -0.0812 
1118 C      -10.6611     8.6313   -13.0892 C.3   192 CCL4   0.3246 
1119 CL     -10.5618     8.1196   -11.3880 Cl    192 CCL4  -0.0812 
1120 CL     -11.2847    10.2964   -13.1638 Cl    192 CCL4  -0.0812 
1121 CL      -9.0429     8.5507   -13.8289 Cl    192 CCL4  -0.0812 
1122 CL     -10.6129    15.9724   -11.5107 Cl    193 CCL4  -0.0812 
1123 C      -10.6851    14.2416   -11.9125 C.3   193 CCL4   0.3246 
1124 CL     -12.2417    13.8857   -12.6935 Cl    193 CCL4  -0.0812 
1125 CL     -10.5155    13.2589   -10.4401 Cl    193 CCL4  -0.0812 
1126 CL      -9.3646    13.8533   -13.0307 Cl    193 CCL4  -0.0812 
1127 CL     -14.9036    10.6380   -17.4924 Cl    194 CCL4  -0.0812 
1128 C      -14.1768     9.0646   -17.0722 C.3   194 CCL4   0.3246 
1129 CL     -14.7248     7.8205   -18.2218 Cl    194 CCL4  -0.0812 
1130 CL     -14.6953     8.6222   -15.4322 Cl    194 CCL4  -0.0812 
1131 CL     -12.4022     9.1921   -17.1308 Cl    194 CCL4  -0.0812 
1132 CL     -15.6789     5.3554   -14.5775 Cl    195 CCL4  -0.0812 
1133 C      -15.9258     3.9673   -13.4887 C.3   195 CCL4   0.3246 
1134 CL     -14.7515     4.0335   -12.1543 Cl    195 CCL4  -0.0812 
1135 CL     -15.7256     2.4419   -14.3871 Cl    195 CCL4  -0.0812 
1136 CL     -17.5691     4.0440   -12.8186 Cl    195 CCL4  -0.0812 
1137 CL     -12.0884     1.2292   -16.7787 Cl    196 CCL4  -0.0812 
1138 C      -12.1352     2.9681   -16.4029 C.3   196 CCL4   0.3246 
1139 CL     -12.0913     3.1800   -14.6381 Cl    196 CCL4  -0.0812 
1140 CL     -13.6314     3.6802   -17.0545 Cl    196 CCL4  -0.0812 
1141 CL     -10.7287     3.7799   -17.1289 Cl    196 CCL4  -0.0812 
1142 CL     -12.0275    10.1761    -8.9424 Cl    197 CCL4  -0.0812 
1143 C      -13.4926    11.0064    -8.3680 C.3   197 CCL4   0.3246 
1144 CL     -14.6693     9.7915    -7.8183 Cl    197 CCL4  -0.0812 
1145 CL     -14.1998    11.9600    -9.6954 Cl    197 CCL4  -0.0812 
1146 CL     -13.0883    12.0943    -7.0204 Cl    197 CCL4  -0.0812 
1147 CL     -17.0136    15.2166    -9.3545 Cl    198 CCL4  -0.0812 
1148 C      -17.4838    15.5394   -11.0396 C.3   198 CCL4   0.3246 
1149 CL     -18.8089    14.4364   -11.4662 Cl    198 CCL4  -0.0812 
1150 CL     -16.0942    15.2537   -12.1141 Cl    198 CCL4  -0.0812 
1151 CL     -18.0201    17.2278   -11.2042 Cl    198 CCL4  -0.0812 
1152 CL     -13.4870     5.9357    -7.8999 Cl    199 CCL4  -0.0812 
1153 C      -11.9176     5.9633    -7.0562 C.3   199 CCL4   0.3246 
1154 CL     -10.6132     5.7097    -8.2368 Cl    199 CCL4  -0.0812 
1155 CL     -11.8708     4.6544    -5.8534 Cl    199 CCL4  -0.0812 
1156 CL     -11.7002     7.5493    -6.2743 Cl    199 CCL4  -0.0812 
1157 CL      16.4551     9.9018    -3.6569 Cl    200 CCL4  -0.0812 
1158 C       16.4350    10.5643    -2.0075 C.3   200 CCL4   0.3246 
1159 CL      15.5935    12.1329    -2.0027 Cl    200 CCL4  -0.0812 
1160 CL      15.6056     9.4432    -0.9041 Cl    200 CCL4  -0.0812 
1161 CL      18.0985    10.7829    -1.4274 Cl    200 CCL4  -0.0812 
1162 CL     -12.5824    15.2388     1.6297 Cl    201 CCL4  -0.0812 
1163 C      -10.9745    14.9601     0.9364 C.3   201 CCL4   0.3246 
1164 CL     -10.1469    16.5132     0.6727 Cl    201 CCL4  -0.0812 
1165 CL     -11.1922    14.1052    -0.6053 Cl    201 CCL4  -0.0812 
1166 CL     -10.0077    13.9561     2.0459 Cl    201 CCL4  -0.0812 
1167 CL     -10.7899     9.2120    -0.5928 Cl    202 CCL4  -0.0812 
1168 C      -12.5466     9.4598    -0.6126 C.3   202 CCL4   0.3246 
1169 CL     -13.3558     7.9603    -0.1140 Cl    202 CCL4  -0.0812 
1170 CL     -13.0956     9.9234    -2.2405 Cl    202 CCL4  -0.0812 
1171 CL     -12.9177    10.7803     0.5199 Cl    202 CCL4  -0.0812 
1172 CL     -16.3593     5.0567    -2.2771 Cl    203 CCL4  -0.0812 
1173 C      -15.2360     4.7306    -3.6168 C.3   203 CCL4   0.3246 
1174 CL     -13.8415     3.8133    -2.9946 Cl    203 CCL4  -0.0812 
1175 CL     -14.6841     6.2667    -4.3290 Cl    203 CCL4  -0.0812 
1176 CL     -16.0708     3.7728    -4.8594 Cl    203 CCL4  -0.0812 
1177 CL      -8.5616     7.8431    -2.9359 Cl    204 CCL4  -0.0812 
1178 C       -9.4458     6.3658    -2.4894 C.3   204 CCL4   0.3246 
1179 CL      -9.2340     6.0168    -0.7555 Cl    204 CCL4  -0.0812 
1180 CL      -8.8256     4.9946    -3.4313 Cl    204 CCL4  -0.0812 
1181 CL     -11.1799     6.5666    -2.8334 Cl    204 CCL4  -0.0812 
1182 CL      -9.7877    18.6936    -4.3462 Cl    205 CCL4  -0.0812 
1183 C      -11.0121    18.7647    -3.0489 C.3   205 CCL4   0.3246 
1184 CL     -12.4458    19.6462    -3.6246 Cl    205 CCL4  -0.0812 
1185 CL     -10.3450    19.6012    -1.6240 Cl    205 CCL4  -0.0812 
1186 CL     -11.4873    17.1132    -2.5956 Cl    205 CCL4  -0.0812 
1187 CL     -16.8376    17.1133    21.5596 Cl    206 CCL4  -0.0812 
1188 C      -18.0260    17.7997    22.6997 C.3   206 CCL4   0.3246 
1189 CL     -17.5143    17.4524    24.3673 Cl    206 CCL4  -0.0812 
1190 CL     -19.6180    17.0609    22.3937 Cl    206 CCL4  -0.0812 
1191 CL     -18.1502    19.5593    22.4658 Cl    206 CCL4  -0.0812 
1192 CL     -12.7066    19.0113    -9.6752 Cl    207 CCL4  -0.0812 
1193 C      -13.6970    17.7529    -8.8946 C.3   207 CCL4   0.3246 
1194 CL     -13.3187    17.6731    -7.1568 Cl    207 CCL4  -0.0812 
1195 CL     -13.3742    16.1684    -9.6398 Cl    207 CCL4  -0.0812 
1196 CL     -15.4165    18.1486    -9.0894 Cl    207 CCL4  -0.0812 
1197 CL     -15.4690    11.9022     7.3193 Cl    208 CCL4  -0.0812 
1198 C      -15.7091    12.2222     9.0533 C.3   208 CCL4   0.3246 
1199 CL     -16.9308    11.0867     9.6633 Cl    208 CCL4  -0.0812 
1200 CL     -16.2968    13.8845     9.2971 Cl    208 CCL4  -0.0812 
1201 CL     -14.1690    11.9776     9.9112 Cl    208 CCL4  -0.0812 
1202 CL     -21.7942     4.0511    12.6011 Cl    209 CCL4  -0.0812 
1203 C      -21.5236     5.2909    11.3601 C.3   209 CCL4   0.3246 
1204 CL     -22.9224     5.3451    10.2644 Cl    209 CCL4  -0.0812 
1205 CL     -20.0422     4.9049    10.4517 Cl    209 CCL4  -0.0812 
1206 CL     -21.3392     6.8605    12.1738 Cl    209 CCL4  -0.0812 
1207 CL     -26.1007    14.8027     9.8847 Cl    210 CCL4  -0.0812 
1208 C      -26.0389    14.1230    11.5257 C.3   210 CCL4   0.3246 
1209 CL     -25.9186    15.4437    12.7098 Cl    210 CCL4  -0.0812 
1210 CL     -24.6383    13.0451    11.6718 Cl    210 CCL4  -0.0812 
1211 CL     -27.5364    13.2160    11.8300 Cl    210 CCL4  -0.0812 
1212 CL     -18.7098    12.0505    12.4542 Cl    211 CCL4  -0.0812 
1213 C      -20.1087    10.9758    12.6635 C.3   211 CCL4   0.3246 
1214 CL     -19.8232     9.8904    14.0415 Cl    211 CCL4  -0.0812 
1215 CL     -20.3327    10.0292    11.1755 Cl    211 CCL4  -0.0812 
1216 CL     -21.5537    11.9495    12.9695 Cl    211 CCL4  -0.0812 
1217 CL     -27.1237     4.6990     9.7232 Cl    212 CCL4  -0.0812 
1218 C      -28.7793     5.0849     9.2070 C.3   212 CCL4   0.3246 
1219 CL     -29.2283     4.0441     7.8366 Cl    212 CCL4  -0.0812 
1220 CL     -28.8878     6.7956     8.7231 Cl    212 CCL4  -0.0812 
1221 CL     -29.9101     4.7902    10.5386 Cl    212 CCL4  -0.0812 
1222 CL     -21.7555     3.9987    16.5530 Cl    213 CCL4  -0.0812 
1223 C      -22.6408     2.7404    17.4392 C.3   213 CCL4   0.3246 
1224 CL     -21.9670     1.1573    17.0083 Cl    213 CCL4  -0.0812 
1225 CL     -24.3492     2.7845    16.9482 Cl    213 CCL4  -0.0812 
1226 CL     -22.5043     3.0290    19.1912 Cl    213 CCL4  -0.0812 
1227 CL     -25.2839     5.0285    13.9160 Cl    214 CCL4  -0.0812 
1228 C      -26.8418     5.3593    14.7035 C.3   214 CCL4   0.3246 
1229 CL     -26.5938     6.5703    15.9830 Cl    214 CCL4  -0.0812 
1230 CL     -27.4815     3.8652    15.4233 Cl    214 CCL4  -0.0812 
1231 CL     -28.0034     5.9717    13.5072 Cl    214 CCL4  -0.0812 
1232 CL     -16.7957    10.1524     4.6859 Cl    215 CCL4  -0.0812 
1233 C      -16.1710     8.7719     3.7555 C.3   215 CCL4   0.3246 
1234 CL     -17.2399     8.4257     2.3809 Cl    215 CCL4  -0.0812 
1235 CL     -16.0711     7.3254     4.7843 Cl    215 CCL4  -0.0812 
1236 CL     -14.5442     9.1668     3.1599 Cl    215 CCL4  -0.0812 
1237 CL     -19.2735     9.6101     7.1895 Cl    216 CCL4  -0.0812 
1238 C      -19.3078     7.9484     7.8157 C.3   216 CCL4   0.3246 
1239 CL     -20.8928     7.6420     8.5409 Cl    216 CCL4  -0.0812 
1240 CL     -18.0389     7.7483     9.0427 Cl    216 CCL4  -0.0812 
1241 CL     -19.0451     6.7953     6.4890 Cl    216 CCL4  -0.0812 
1242 CL     -26.1409     8.5502     5.0967 Cl    217 CCL4  -0.0812 
1243 C      -25.3276     6.9763     5.2592 C.3   217 CCL4   0.3246 
1244 CL     -26.4270     5.8376     6.0823 Cl    217 CCL4  -0.0812 
1245 CL     -23.8443     7.1939     6.2194 Cl    217 CCL4  -0.0812 
1246 CL     -24.9131     6.3484     3.6394 Cl    217 CCL4  -0.0812 
1247 CL     -23.8968    14.2681     6.8504 Cl    218 CCL4  -0.0812 
1248 C      -24.4558    12.6430     6.3838 C.3   218 CCL4   0.3246 
1249 CL     -25.8646    12.1987     7.3712 Cl    218 CCL4  -0.0812 
1250 CL     -23.1644    11.4588     6.6831 Cl    218 CCL4  -0.0812 
1251 CL     -24.8819    12.6113     4.6577 Cl    218 CCL4  -0.0812 
1252 CL     -31.6834    12.0240     6.4005 Cl    219 CCL4  -0.0812 
1253 C      -30.1447    11.7028     7.2379 C.3   219 CCL4   0.3246 
1254 CL     -30.4818    11.0480     8.8595 Cl    219 CCL4  -0.0812 
1255 CL     -29.2162    13.2112     7.3940 Cl    219 CCL4  -0.0812 
1256 CL     -29.2154    10.5055     6.3109 Cl    219 CCL4  -0.0812 
1257 CL     -23.8433     9.0190     9.5255 Cl    220 CCL4  -0.0812 
1258 C      -24.9851     9.1392    10.8816 C.3   220 CCL4   0.3246 
1259 CL     -26.2875    10.2683    10.4459 Cl    220 CCL4  -0.0812 
1260 CL     -24.1224     9.6864    12.3389 Cl    220 CCL4  -0.0812 
1261 CL     -25.6960     7.5470    11.2088 Cl    220 CCL4  -0.0812 
1262 CL      -5.6970    12.9610    14.6323 Cl    221 CCL4  -0.0812 
1263 C       -6.5205    11.6179    13.8070 C.3   221 CCL4   0.3246 
1264 CL      -8.1818    11.5176    14.4185 Cl    221 CCL4  -0.0812 
1265 CL      -5.6687    10.0850    14.1327 Cl    221 CCL4  -0.0812 
1266 CL      -6.5532    11.9276    12.0512 Cl    221 CCL4  -0.0812 
1267 CL      -6.0377     4.7139    12.5843 Cl    222 CCL4  -0.0812 
1268 C       -7.6601     5.4055    12.4517 C.3   222 CCL4   0.3246 
1269 CL      -7.5496     6.8958    11.4912 Cl    222 CCL4  -0.0812 
1270 CL      -8.2534     5.7948    14.0804 Cl    222 CCL4  -0.0812 
1271 CL      -8.7495     4.2366    11.6694 Cl    222 CCL4  -0.0812 
1272 CL      -8.4595     5.9501     8.3122 Cl    223 CCL4  -0.0812 
1273 C       -7.7838     7.0408     7.0844 C.3   223 CCL4   0.3246 
1274 CL      -6.1694     7.6020     7.5873 Cl    223 CCL4  -0.0812 
1275 CL      -8.8701     8.4374     6.9403 Cl    223 CCL4  -0.0812 
1276 CL      -7.6936     6.2021     5.5208 Cl    223 CCL4  -0.0812 
1277 CL     -26.1097     7.5470    20.5678 Cl    224 CCL4  -0.0812 
1278 C      -25.6172     5.9529    19.9473 C.3   224 CCL4   0.3246 
1279 CL     -27.0262     5.1316    19.2344 Cl    224 CCL4  -0.0812 
1280 CL     -24.9854     4.9667    21.2928 Cl    224 CCL4  -0.0812 
1281 CL     -24.3527     6.1840    18.7147 Cl    224 CCL4  -0.0812 
1282 CL     -18.3924    10.1939    17.4386 Cl    225 CCL4  -0.0812 
1283 C      -18.0579    11.0020    18.9813 C.3   225 CCL4   0.3246 
1284 CL     -16.6564    12.0807    18.8236 Cl    225 CCL4  -0.0812 
1285 CL     -17.7062     9.7711    20.2200 Cl    225 CCL4  -0.0812 
1286 CL     -19.4897    11.9432    19.4381 Cl    225 CCL4  -0.0812 
1287 CL     -21.2803    13.4533    16.0542 Cl    226 CCL4  -0.0812 
1288 C      -22.8242    14.2143    15.5995 C.3   226 CCL4   0.3246 
1289 CL     -23.3881    15.2244    16.9529 Cl    226 CCL4  -0.0812 
1290 CL     -24.0403    12.9614    15.2510 Cl    226 CCL4  -0.0812 
1291 CL     -22.5817    15.2494    14.1772 Cl    226 CCL4  -0.0812 
1292 CL     -17.8164     4.9574    15.8219 Cl    227 CCL4  -0.0812 
1293 C      -18.3005     5.8531    17.2790 C.3   227 CCL4   0.3246 
1294 CL     -19.6543     6.9252    16.8601 Cl    227 CCL4  -0.0812 
1295 CL     -16.9278     6.8093    17.8796 Cl    227 CCL4  -0.0812 
1296 CL     -18.8121     4.7078    18.5410 Cl    227 CCL4  -0.0812 
1297 CL     -27.0639     9.5260    14.3774 Cl    228 CCL4  -0.0812 
1298 C      -27.2588    10.4021    15.9118 C.3   228 CCL4   0.3246 
1299 CL     -27.6878    12.0853    15.5349 Cl    228 CCL4  -0.0812 
1300 CL     -25.7419    10.3186    16.8382 Cl    228 CCL4  -0.0812 
1301 CL     -28.5581     9.6520    16.8649 Cl    228 CCL4  -0.0812 
1302 CL     -10.4324     3.0529    14.5917 Cl    229 CCL4  -0.0812 
1303 C       -9.1444     2.0219    15.2607 C.3   229 CCL4   0.3246 
1304 CL      -9.8292     0.8665    16.4208 Cl    229 CCL4  -0.0812 
1305 CL      -7.9365     3.0203    16.1054 Cl    229 CCL4  -0.0812 
1306 CL      -8.3728     1.1283    13.9348 Cl    229 CCL4  -0.0812 
1307 CL     -20.6733    15.9464     8.8568 Cl    230 CCL4  -0.0812 
1308 C      -21.3674    15.0855    10.2487 C.3   230 CCL4   0.3246 
1309 CL     -21.7212    13.4054     9.7720 Cl    230 CCL4  -0.0812 
1310 CL     -22.8597    15.9158    10.7437 Cl    230 CCL4  -0.0812 
1311 CL     -20.1905    15.1089    11.5844 Cl    230 CCL4  -0.0812 
1312 CL     -26.9824    15.6423     5.8170 Cl    231 CCL4  -0.0812 
1313 C      -26.5602    16.7136     4.4666 C.3   231 CCL4   0.3246 
1314 CL     -27.8075    17.9682     4.3021 Cl    231 CCL4  -0.0812 
1315 CL     -26.4904    15.7614     2.9760 Cl    231 CCL4  -0.0812 
1316 CL     -24.9780    17.4724     4.7679 Cl    231 CCL4  -0.0812 
1317 CL     -28.4904    17.1163     8.6489 Cl    232 CCL4  -0.0812 
1318 C      -27.3952    18.5187     8.6685 C.3   232 CCL4   0.3246 
1319 CL     -27.9183    19.6956     7.4467 Cl    232 CCL4  -0.0812 
1320 CL     -25.7250    18.0098     8.3300 Cl    232 CCL4  -0.0812 
1321 CL     -27.4664    19.2781    10.2730 Cl    232 CCL4  -0.0812 
1322 CL     -10.1389    17.7030    18.3800 Cl    233 CCL4  -0.0812 
1323 C       -9.5290    16.1021    18.8752 C.3   233 CCL4   0.3246 
1324 CL      -8.3563    16.2924    20.2027 Cl    233 CCL4  -0.0812 
1325 CL      -8.7311    15.3049    17.4942 Cl    233 CCL4  -0.0812 
1326 CL     -10.8910    15.1090    19.4415 Cl    233 CCL4  -0.0812 
1327 CL     -18.2182    13.8366     5.0591 Cl    234 CCL4  -0.0812 
1328 C      -19.7022    14.5958     4.4396 C.3   234 CCL4   0.3246 
1329 CL     -21.0809    13.5178     4.7401 Cl    234 CCL4  -0.0812 
1330 CL     -19.5155    14.8848     2.6977 Cl    234 CCL4  -0.0812 
1331 CL     -19.9807    16.1385     5.2714 Cl    234 CCL4  -0.0812 
1332 CL     -20.4498    17.4753    18.0229 Cl    235 CCL4  -0.0812 
1333 C      -18.9747    16.8942    17.2145 C.3   235 CCL4   0.3246 
1334 CL     -19.3203    16.6182    15.4905 Cl    235 CCL4  -0.0812 
1335 CL     -18.4292    15.3932    18.0066 Cl    235 CCL4  -0.0812 
1336 CL     -17.7024    18.1245    17.3601 Cl    235 CCL4  -0.0812 
1337 CL     -27.0153    15.9830    19.4301 Cl    236 CCL4  -0.0812 
1338 C      -27.2927    14.7284    18.1979 C.3   236 CCL4   0.3246 
1339 CL     -28.9417    14.0845    18.3992 Cl    236 CCL4  -0.0812 
1340 CL     -26.1199    13.4111    18.4251 Cl    236 CCL4  -0.0812 
1341 CL     -27.1009    15.4285    16.5697 Cl    236 CCL4  -0.0812 
1342 CL     -13.2512    16.1317     9.8468 Cl    237 CCL4  -0.0812 
1343 C      -12.4434    17.7040     9.9924 C.3   237 CCL4   0.3246 
1344 CL     -12.4038    18.4801     8.3925 Cl    237 CCL4  -0.0812 
1345 CL     -10.7805    17.4861    10.5986 Cl    237 CCL4  -0.0812 
1346 CL     -13.3663    18.7254    11.1215 Cl    237 CCL4  -0.0812 
1347 CL     -15.4915     9.8452    12.4240 Cl    238 CCL4  -0.0812 
1348 C      -15.7283     8.1534    12.8860 C.3   238 CCL4   0.3246 
1349 CL     -15.2660     7.8695    14.5819 Cl    238 CCL4  -0.0812 
1350 CL     -14.7328     7.1338    11.8292 Cl    238 CCL4  -0.0812 
1351 CL     -17.4353     7.7227    12.6538 Cl    238 CCL4  -0.0812 
1352 CL     -10.6309    12.3743     7.9957 Cl    239 CCL4  -0.0812 
1353 C       -9.3214    13.4970     7.5707 C.3   239 CCL4   0.3246 
1354 CL      -7.8642    13.0679     8.4922 Cl    239 CCL4  -0.0812 
1355 CL      -9.7859    15.1699     7.9597 Cl    239 CCL4  -0.0812 
1356 CL      -8.9763    13.3810     5.8276 Cl    239 CCL4  -0.0812 
1357 CL     -11.0448     7.1885    12.2643 Cl    240 CCL4  -0.0812 
1358 C      -10.7279     8.8448    12.8378 C.3   240 CCL4   0.3246 
1359 CL     -10.0968     8.7619    14.4974 Cl    240 CCL4  -0.0812 
1360 CL     -12.2386     9.7642    12.8424 Cl    240 CCL4  -0.0812 
1361 CL      -9.5582     9.6718    11.7789 Cl    240 CCL4  -0.0812 
1362 CL      -9.6509    14.6520    13.3455 Cl    241 CCL4  -0.0812 
1363 C      -11.2633    13.9703    13.0501 C.3   241 CCL4   0.3246 
1364 CL     -12.4553    15.2867    13.0238 Cl    241 CCL4  -0.0812 
1365 CL     -11.6738    12.8287    14.3492 Cl    241 CCL4  -0.0812 
1366 CL     -11.2586    13.1364    11.4812 Cl    241 CCL4  -0.0812 
1367 CL     -14.6564     8.1986     7.8260 Cl    242 CCL4  -0.0812 
1368 C      -12.8861     8.3291     7.7466 C.3   242 CCL4   0.3246 
1369 CL     -12.1980     6.7811     7.2020 Cl    242 CCL4  -0.0812 
1370 CL     -12.2557     8.7504     9.3531 Cl    242 CCL4  -0.0812 
1371 CL     -12.4447     9.6146     6.6007 Cl    242 CCL4  -0.0812 
1372 CL     -15.1172     4.1144    10.2009 Cl    243 CCL4  -0.0812 
1373 C      -14.7657     3.0657    11.5955 C.3   243 CCL4   0.3246 
1374 CL     -13.4752     3.7990    12.5789 Cl    243 CCL4  -0.0812 
1375 CL     -14.2387     1.4761    10.9993 Cl    243 CCL4  -0.0812 
1376 CL     -16.2358     2.8706    12.5713 Cl    243 CCL4  -0.0812 
1377 CL     -11.9910    15.9519     4.9371 Cl    244 CCL4  -0.0812 
1378 C      -13.1648    14.6485     5.2396 C.3   244 CCL4   0.3246 
1379 CL     -13.3375    14.4021     6.9817 Cl    244 CCL4  -0.0812 
1380 CL     -12.5826    13.1398     4.4962 Cl    244 CCL4  -0.0812 
1381 CL     -14.7433    15.0866     4.5473 Cl    244 CCL4  -0.0812 
1382 CL     -10.9139     9.5052    18.4843 Cl    245 CCL4  -0.0812 
1383 C      -12.3814    10.3742    17.9718 C.3   245 CCL4   0.3246 
1384 CL     -13.7055    10.0071    19.0971 Cl    245 CCL4  -0.0812 
1385 CL     -12.8527     9.8449    16.3435 Cl    245 CCL4  -0.0812 
1386 CL     -12.0827    12.1232    17.9759 Cl    245 CCL4  -0.0812 
1387 CL     -14.8372    13.5466    16.2613 Cl    246 CCL4  -0.0812 
1388 C      -15.9502    12.9724    15.0051 C.3   246 CCL4   0.3246 
1389 CL     -16.1998    11.2406    15.2481 Cl    246 CCL4  -0.0812 
1390 CL     -15.2473    13.2521    13.3985 Cl    246 CCL4  -0.0812 
1391 CL     -17.4983    13.8166    15.1471 Cl    246 CCL4  -0.0812 
1392 CL     -12.7518     5.6069    19.2879 Cl    247 CCL4  -0.0812 
1393 C      -11.7895     4.9331    17.9492 C.3   247 CCL4   0.3246 
1394 CL     -12.3655     5.6173    16.4061 Cl    247 CCL4  -0.0812 
1395 CL     -11.9674     3.1609    17.9361 Cl    247 CCL4  -0.0812 
1396 CL     -10.0709     5.3519    18.1691 Cl    247 CCL4  -0.0812 
1397 CL     -16.8865    16.6460     7.0656 Cl    248 CCL4  -0.0812 
1398 C      -16.9606    18.4055     7.3542 C.3   248 CCL4   0.3246 
1399 CL     -15.5918    19.1881     6.5251 Cl    248 CCL4  -0.0812 
1400 CL     -16.8416    18.7269     9.1026 Cl    248 CCL4  -0.0812 
1401 CL     -18.4931    19.0577     6.7217 Cl    248 CCL4  -0.0812 
1402 CL     -13.3411    18.7911    16.5114 Cl    249 CCL4  -0.0812 
1403 C      -13.9004    17.1095    16.6078 C.3   249 CCL4   0.3246 
1404 CL     -14.5737    16.7951    18.2243 Cl    249 CCL4  -0.0812 
1405 CL     -12.5089    16.0366    16.3315 Cl    249 CCL4  -0.0812 
1406 CL     -15.1315    16.8382    15.3539 Cl    249 CCL4  -0.0812 
1407 CL      -5.8328    -9.9409   -13.7452 Cl    250 CCL4  -0.0812 
1408 C       -5.4794    -8.3091   -13.1343 C.3   250 CCL4   0.3246 
1409 CL      -6.7225    -7.1844   -13.7236 Cl    250 CCL4  -0.0812 
1410 CL      -3.8878    -7.7999   -13.7434 Cl    250 CCL4  -0.0812 
1411 CL      -5.4798    -8.3082   -11.3545 Cl    250 CCL4  -0.0812 
1412 CL       7.5297   -12.2917   -17.5859 Cl    251 CCL4  -0.0812 
1413 C        7.8233   -12.0257   -15.8537 C.3   251 CCL4   0.3246 
1414 CL       7.0881   -13.3543   -14.9239 Cl    251 CCL4  -0.0812 
1415 CL       7.0885   -10.4802   -15.3743 Cl    251 CCL4  -0.0812 
1416 CL       9.5803   -11.9558   -15.5707 Cl    251 CCL4  -0.0812 
1417 CL       3.8535    20.6705   -11.5497 Cl    252 CCL4  -0.0812 
1418 C        3.4078    21.2503   -13.1707 C.3   252 CCL4   0.3246 
1419 CL       2.4230    20.0262   -14.0093 Cl    252 CCL4  -0.0812 
1420 CL       4.8797    21.5619   -14.1227 Cl    252 CCL4  -0.0812 
1421 CL       2.4641    22.7465   -13.0073 Cl    252 CCL4  -0.0812 
1422 CL      -1.6903   -10.3210   -12.4707 Cl    253 CCL4  -0.0812 
1423 C       -0.9569   -11.9403   -12.3735 C.3   253 CCL4   0.3246 
1424 CL      -1.3727   -12.6701   -10.8001 Cl    253 CCL4  -0.0812 
1425 CL       0.8153   -11.8123   -12.5141 Cl    253 CCL4  -0.0812 
1426 CL      -1.5887   -12.9468   -13.6969 Cl    253 CCL4  -0.0812 
1427 CL       6.4020   -17.9017     2.0617 Cl    254 CCL4  -0.0812 
1428 C        4.7170   -17.3290     2.1469 C.3   254 CCL4   0.3246 
1429 CL       4.2608   -16.5161     0.6282 Cl    254 CCL4  -0.0812 
1430 CL       4.5762   -16.2000     3.5150 Cl    254 CCL4  -0.0812 
1431 CL       3.6350   -18.7149     2.4142 Cl    254 CCL4  -0.0812 
1432 CL       1.2373    -0.9710   -12.4623 Cl    255 CCL4  -0.0812 
1433 C        1.6240     0.7523   -12.6840 C.3   255 CCL4   0.3246 
1434 CL       0.9153     1.6903   -11.3496 Cl    255 CCL4  -0.0812 
1435 CL       0.9434     1.3149   -14.2254 Cl    255 CCL4  -0.0812 
1436 CL       3.3846     0.9868   -12.7051 Cl    255 CCL4  -0.0812 
1437 CL       4.6611   -13.6554   -11.6009 Cl    256 CCL4  -0.0812 
1438 C        3.8453   -15.0875   -12.2684 C.3   256 CCL4   0.3246 
1439 CL       5.0215   -16.4075   -12.4435 Cl    256 CCL4  -0.0812 
1440 CL       3.1404   -14.6873   -13.8537 Cl    256 CCL4  -0.0812 
1441 CL       2.5736   -15.6060   -11.1344 Cl    256 CCL4  -0.0812 
1442 CL      -0.5586    20.9943   -11.4525 Cl    257 CCL4  -0.0812 
1443 C       -1.7316    22.1910   -10.8498 C.3   257 CCL4   0.3246 
1444 CL      -0.8728    23.4270    -9.8990 Cl    257 CCL4  -0.0812 
1445 CL      -2.9370    21.3799    -9.8221 Cl    257 CCL4  -0.0812 
1446 CL      -2.5542    22.9534   -12.2274 Cl    257 CCL4  -0.0812 
1447 CL       8.3446     3.4128   -17.5744 Cl    258 CCL4  -0.0812 
1448 C        6.7475     2.8520   -17.0366 C.3   258 CCL4   0.3246 
1449 CL       6.9527     1.5817   -15.8075 Cl    258 CCL4  -0.0812 
1450 CL       5.8480     2.2160   -18.4266 Cl    258 CCL4  -0.0812 
1451 CL       5.8385     4.2156   -16.3495 Cl    258 CCL4  -0.0812 
1452 CL       0.5752     0.8661    21.8169 Cl    259 CCL4  -0.0812 
1453 C        2.1190    -0.0169    21.9002 C.3   259 CCL4   0.3246 
1454 CL       3.1437     0.6733    23.1802 Cl    259 CCL4  -0.0812 
1455 CL       2.9528     0.1124    20.3322 Cl    259 CCL4  -0.0812 
1456 CL       1.8188    -1.7313    22.2633 Cl    259 CCL4  -0.0812 
1457 CL       2.6634   -13.3012     1.9688 Cl    260 CCL4  -0.0812 
1458 C        1.1901   -12.3564     1.6519 C.3   260 CCL4   0.3246 
1459 CL       1.5000   -11.2237     0.3142 Cl    260 CCL4  -0.0812 
1460 CL       0.7646   -11.4272     3.1083 Cl    260 CCL4  -0.0812 
1461 CL      -0.1383   -13.4771     1.2588 Cl    260 CCL4  -0.0812 
1462 CL      -6.2409   -11.0061     3.8820 Cl    261 CCL4  -0.0812 
1463 C       -5.1610   -11.5603     2.5797 C.3   261 CCL4   0.3246 
1464 CL      -3.4668   -11.4067     3.1033 Cl    261 CCL4  -0.0812 
1465 CL      -5.4005   -10.5661     1.1260 Cl    261 CCL4  -0.0812 
1466 CL      -5.4827   -13.2676     2.1979 Cl    261 CCL4  -0.0812 
1467 CL       6.1977   -15.8537    22.0657 Cl    262 CCL4  -0.0812 
1468 C        5.0458   -17.2052    22.1127 C.3   262 CCL4   0.3246 
1469 CL       3.8890   -16.9440    23.4344 Cl    262 CCL4  -0.0812 
1470 CL       5.9171   -18.7223    22.4304 Cl    262 CCL4  -0.0812 
1471 CL       4.1753   -17.3052    20.5615 Cl    262 CCL4  -0.0812 
1472 CL       2.2284   -10.5029    21.8166 Cl    263 CCL4  -0.0812 
1473 C        1.9746   -12.2345    22.1388 C.3   263 CCL4   0.3246 
1474 CL       0.7249   -12.3999    23.3983 Cl    263 CCL4  -0.0812 
1475 CL       3.5022   -12.9594    22.7063 Cl    263 CCL4  -0.0812 
1476 CL       1.4382   -13.0525    20.6479 Cl    263 CCL4  -0.0812 
1477 CL      -0.3437   -18.4495   -15.3511 Cl    264 CCL4  -0.0812 
1478 C       -0.4843   -16.6866   -15.1419 C.3   264 CCL4   0.3246 
1479 CL       0.5826   -15.8615   -16.2988 Cl    264 CCL4  -0.0812 
1480 CL      -0.0278   -16.2374   -13.4844 Cl    264 CCL4  -0.0812 
1481 CL      -2.1669   -16.1941   -15.4439 Cl    264 CCL4  -0.0812 
1482 CL      -2.9587     1.1610   -12.1103 Cl    265 CCL4  -0.0812 
1483 C       -4.4179     0.1714   -12.3588 C.3   265 CCL4   0.3246 
1484 CL      -5.1007     0.4437   -13.9813 Cl    265 CCL4  -0.0812 
1485 CL      -5.6337     0.5922   -11.1298 Cl    265 CCL4  -0.0812 
1486 CL      -3.9888    -1.5468   -12.1842 Cl    265 CCL4  -0.0812 
1487 CL      -1.1751    23.0861    -3.9201 Cl    266 CCL4  -0.0812 
1488 C       -1.0343    21.5539    -4.8066 C.3   266 CCL4   0.3246 
1489 CL      -2.2427    20.4053    -4.1836 Cl    266 CCL4  -0.0812 
1490 CL       0.6005    20.8873    -4.5641 Cl    266 CCL4  -0.0812 
1491 CL      -1.2815    21.8462    -6.5483 Cl    266 CCL4  -0.0812 
1492 CL       6.6403   -13.2813    -2.0777 Cl    267 CCL4  -0.0812 
1493 C        7.1655   -13.0611    -0.3911 C.3   267 CCL4   0.3246 
1494 CL       5.8775   -12.2369     0.5200 Cl    267 CCL4  -0.0812 
1495 CL       8.6481   -12.0742    -0.3456 Cl    267 CCL4  -0.0812 
1496 CL       7.4530   -14.6441     0.3716 Cl    267 CCL4  -0.0812 
1497 CL       5.0229   -14.7609    -7.4838 Cl    268 CCL4  -0.0812 
1498 C        6.1760   -13.7199    -6.6123 C.3   268 CCL4   0.3246 
1499 CL       7.0975   -12.7481    -7.7854 Cl    268 CCL4  -0.0812 
1500 CL       7.3005   -14.7316    -5.6791 Cl    268 CCL4  -0.0812 
1501 CL       5.2905   -12.6405    -5.5105 Cl    268 CCL4  -0.0812 
1502 CL       4.1563   -10.6690    -8.3411 Cl    269 CCL4  -0.0812 
1503 C        2.4094   -10.8770    -8.0626 C.3   269 CCL4   0.3246 
1504 CL       1.9767   -10.1504    -6.4950 Cl    269 CCL4  -0.0812 
1505 CL       2.0286   -12.6176    -8.0550 Cl    269 CCL4  -0.0812 
1506 CL       1.5089   -10.0754    -9.3736 Cl    269 CCL4  -0.0812 
1507 CL       8.4070   -19.3106   -10.2094 Cl    270 CCL4  -0.0812 
1508 C        7.7180   -18.4958    -8.7892 C.3   270 CCL4   0.3246 
1509 CL       6.0103   -18.1101    -9.1165 Cl    270 CCL4  -0.0812 
1510 CL       8.6046   -16.9853    -8.4729 Cl    270 CCL4  -0.0812 
1511 CL       7.8453   -19.5643    -7.3708 Cl    270 CCL4  -0.0812 
1512 CL       6.7346   -17.1145    -3.0564 Cl    271 CCL4  -0.0812 
1513 C        5.8215   -18.5358    -3.6168 C.3   271 CCL4   0.3246 
1514 CL       5.3058   -18.2873    -5.3022 Cl    271 CCL4  -0.0812 
1515 CL       4.3946   -18.7554    -2.5793 Cl    271 CCL4  -0.0812 
1516 CL       6.8503   -19.9858    -3.5147 Cl    271 CCL4  -0.0812 
1517 CL      10.8589   -10.0941    -6.6088 Cl    272 CCL4  -0.0812 
1518 C       11.5152   -10.2951    -4.9702 C.3   272 CCL4   0.3246 
1519 CL      11.6243   -12.0310    -4.5763 Cl    272 CCL4  -0.0812 
1520 CL      10.4436    -9.5042    -3.7891 Cl    272 CCL4  -0.0812 
1521 CL      13.1287    -9.5558    -4.8739 Cl    272 CCL4  -0.0812 
1522 CL      -0.5604   -14.8384    -3.4171 Cl    273 CCL4  -0.0812 
1523 C        1.2110   -14.8286    -3.2643 C.3   273 CCL4   0.3246 
1524 CL       1.8114   -16.5009    -3.3536 Cl    273 CCL4  -0.0812 
1525 CL       1.6800   -14.1074    -1.7096 Cl    273 CCL4  -0.0812 
1526 CL       1.9091   -13.8774    -4.5970 Cl    273 CCL4  -0.0812 
1527 CL       1.5418    21.5597    -0.4964 Cl    274 CCL4  -0.0812 
1528 C        0.2689    22.0503     0.6478 C.3   274 CCL4   0.3246 
1529 CL       0.3575    21.0188     2.0989 Cl    274 CCL4  -0.0812 
1530 CL      -1.3225    21.8256    -0.1137 Cl    274 CCL4  -0.0812 
1531 CL       0.4807    23.7599     1.1054 Cl    274 CCL4  -0.0812 
1532 CL       4.8262    -7.7041   -15.7695 Cl    275 CCL4  -0.0812 
1533 C        4.0583    -8.3892   -14.3191 C.3   275 CCL4   0.3246 
1534 CL       3.5040   -10.0446   -14.6656 Cl    275 CCL4  -0.0812 
1535 CL       2.6658    -7.3900   -13.8564 Cl    275 CCL4  -0.0812 
1536 CL       5.2204    -8.4171   -12.9723 Cl    275 CCL4  -0.0812 
1537 CL       4.5065    -1.6882    -7.1940 Cl    276 CCL4  -0.0812 
1538 C        3.9849    -2.1338    -8.8331 C.3   276 CCL4   0.3246 
1539 CL       2.6883    -3.3447    -8.7194 Cl    276 CCL4  -0.0812 
1540 CL       5.3535    -2.8013    -9.7475 Cl    276 CCL4  -0.0812 
1541 CL       3.3555    -0.7106    -9.6791 Cl    276 CCL4  -0.0812 
1542 CL      -0.5459    -4.0217   -10.5206 Cl    277 CCL4  -0.0812 
1543 C       -1.2393    -5.5414   -11.1388 C.3   277 CCL4   0.3246 
1544 CL      -0.7478    -6.8985   -10.0960 Cl    277 CCL4  -0.0812 
1545 CL      -0.6583    -5.8225   -12.7965 Cl    277 CCL4  -0.0812 
1546 CL      -3.0183    -5.4261   -11.1388 Cl    277 CCL4  -0.0812 
1547 CL       4.9691    -4.2810   -15.6676 Cl    278 CCL4  -0.0812 
1548 C        3.8650    -3.6076   -14.4466 C.3   278 CCL4   0.3246 
1549 CL       4.1662    -4.3495   -12.8585 Cl    278 CCL4  -0.0812 
1550 CL       2.1803    -3.9327   -14.9243 Cl    278 CCL4  -0.0812 
1551 CL       4.1278    -1.8563   -14.3436 Cl    278 CCL4  -0.0812 
1552 CL      -1.5160     0.0383    -5.3635 Cl    279 CCL4  -0.0812 
1553 C       -0.9243    -0.6134    -6.9084 C.3   279 CCL4   0.3246 
1554 CL      -1.6149    -2.2288    -7.1822 Cl    279 CCL4  -0.0812 
1555 CL       0.8450    -0.7540    -6.8274 Cl    279 CCL4  -0.0812 
1556 CL      -1.3581     0.4712    -8.2530 Cl    279 CCL4  -0.0812 
1557 CL      -1.0403    -8.2340   -18.3746 Cl    280 CCL4  -0.0812 
1558 C       -0.2727    -7.3763   -17.0151 C.3   280 CCL4   0.3246 
1559 CL      -1.2438    -5.9382   -16.6202 Cl    280 CCL4  -0.0812 
1560 CL       1.3690    -6.8677   -17.4811 Cl    280 CCL4  -0.0812 
1561 CL      -0.1917    -8.4603   -15.6078 Cl    280 CCL4  -0.0812 
1562 CL       6.3526    -5.2615    -7.4605 Cl    281 CCL4  -0.0812 
1563 C        5.7250    -6.8496    -7.9639 C.3   281 CCL4   0.3246 
1564 CL       4.7038    -6.6698    -9.4132 Cl    281 CCL4  -0.0812 
1565 CL       4.7368    -7.5193    -6.6473 Cl    281 CCL4  -0.0812 
1566 CL       7.0756    -7.9566    -8.2967 Cl    281 CCL4  -0.0812 
1567 CL      10.0864    -4.3194    -6.9333 Cl    282 CCL4  -0.0812 
1568 C        9.7816    -4.9432    -5.2959 C.3   282 CCL4   0.3246 
1569 CL       8.6953    -3.8354    -4.4319 Cl    282 CCL4  -0.0812 
1570 CL      11.3264    -5.0818    -4.4284 Cl    282 CCL4  -0.0812 
1571 CL       9.0216    -6.5481    -5.3862 Cl    282 CCL4  -0.0812 
1572 CL      -0.2102    -9.2368    -2.0424 Cl    283 CCL4  -0.0812 
1573 C       -1.6104   -10.3245    -2.1627 C.3   283 CCL4   0.3246 
1574 CL      -3.0787    -9.3816    -2.5065 Cl    283 CCL4  -0.0812 
1575 CL      -1.8405   -11.1874    -0.6251 Cl    283 CCL4  -0.0812 
1576 CL      -1.3161   -11.4893    -3.4677 Cl    283 CCL4  -0.0812 
1577 CL       1.0038    -4.1582    -5.4028 Cl    284 CCL4  -0.0812 
1578 C        0.4982    -5.7857    -5.9076 C.3   284 CCL4   0.3246 
1579 CL      -1.1967    -5.7556    -6.4319 Cl    284 CCL4  -0.0812 
1580 CL       0.7169    -6.9206    -4.5589 Cl    284 CCL4  -0.0812 
1581 CL       1.5114    -6.3087    -7.2696 Cl    284 CCL4  -0.0812 
1582 CL       7.3783     1.6287    -6.0977 Cl    285 CCL4  -0.0812 
1583 C        7.7280     0.0415    -5.3866 C.3   285 CCL4   0.3246 
1584 CL       9.2792     0.1147    -4.5284 Cl    285 CCL4  -0.0812 
1585 CL       7.8166    -1.1669    -6.6860 Cl    285 CCL4  -0.0812 
1586 CL       6.4422    -0.3960    -4.2369 Cl    285 CCL4  -0.0812 
1587 CL      -1.8032    -3.1093    -3.3792 Cl    286 CCL4  -0.0812 
1588 C       -2.5350    -4.3309    -2.3082 C.3   286 CCL4   0.3246 
1589 CL      -4.3074    -4.1637    -2.3203 Cl    286 CCL4  -0.0812 
1590 CL      -1.9384    -4.0936    -0.6491 Cl    286 CCL4  -0.0812 
1591 CL      -2.0980    -5.9582    -2.8649 Cl    286 CCL4  -0.0812 
1592 CL       2.2366    -4.5822    -1.1453 Cl    287 CCL4  -0.0812 
1593 C        1.9834    -5.7002     0.2145 C.3   287 CCL4   0.3246 
1594 CL       3.3003    -6.8966     0.2538 Cl    287 CCL4  -0.0812 
1595 CL       0.4479    -6.5510    -0.0142 Cl    287 CCL4  -0.0812 
1596 CL       1.9585    -4.7923     1.7514 Cl    287 CCL4  -0.0812 
1597 CL       6.3041    -9.1321    -1.2028 Cl    288 CCL4  -0.0812 
1598 C        5.4933    -9.0387    -2.7842 C.3   288 CCL4   0.3246 
1599 CL       6.6846    -9.3074    -4.0739 Cl    288 CCL4  -0.0812 
1600 CL       4.7449    -7.4352    -2.9706 Cl    288 CCL4  -0.0812 
1601 CL       4.2299   -10.2901    -2.8644 Cl    288 CCL4  -0.0812 
1602 CL      -5.1398    -7.1645    -4.5808 Cl    289 CCL4  -0.0812 
1603 C       -5.2759    -6.0338    -5.9510 C.3   289 CCL4   0.3246 
1604 CL      -4.2328    -4.6277    -5.6673 Cl    289 CCL4  -0.0812 
1605 CL      -6.9557    -5.4754    -6.1209 Cl    289 CCL4  -0.0812 
1606 CL      -4.7817    -6.8356    -7.4613 Cl    289 CCL4  -0.0812 
1607 CL      -4.0535   -11.4294    -5.8309 Cl    290 CCL4  -0.0812 
1608 C       -2.8212   -10.6172    -6.8310 C.3   290 CCL4   0.3246 
1609 CL      -3.4919   -10.2738    -8.4413 Cl    290 CCL4  -0.0812 
1610 CL      -1.3997   -11.6757    -7.0016 Cl    290 CCL4  -0.0812 
1611 CL      -2.3189    -9.0959    -6.0554 Cl    290 CCL4  -0.0812 
1612 CL       9.1609    -6.9925    -0.8023 Cl    291 CCL4  -0.0812 
1613 C        8.3310    -6.5223     0.7059 C.3   291 CCL4   0.3246 
1614 CL       9.3667    -5.3875     1.5982 Cl    291 CCL4  -0.0812 
1615 CL       8.0505    -7.9599     1.7162 Cl    291 CCL4  -0.0812 
1616 CL       6.7788    -5.7338     0.3181 Cl    291 CCL4  -0.0812 
1617 CL      12.6171    -8.5488   -15.9995 Cl    292 CCL4  -0.0812 
1618 C       13.5133    -7.6662   -14.7388 C.3   292 CCL4   0.3246 
1619 CL      13.4134    -5.9188   -15.0224 Cl    292 CCL4  -0.0812 
1620 CL      15.2208    -8.1494   -14.7723 Cl    292 CCL4  -0.0812 
1621 CL      12.8173    -8.0340   -13.1443 Cl    292 CCL4  -0.0812 
1622 CL      10.1000   -14.5969   -13.5333 Cl    293 CCL4  -0.0812 
1623 C        9.1215   -15.8097   -12.6900 C.3   293 CCL4   0.3246 
1624 CL       8.1181   -15.0157   -11.4517 Cl    293 CCL4  -0.0812 
1625 CL      10.2184   -16.9736   -11.9165 Cl    293 CCL4  -0.0812 
1626 CL       8.1013   -16.6670   -13.8710 Cl    293 CCL4  -0.0812 
1627 CL      15.2406   -10.6144   -12.5216 Cl    294 CCL4  -0.0812 
1628 C       15.0520   -11.9515   -13.6813 C.3   294 CCL4   0.3246 
1629 CL      13.3864   -12.0030   -14.2902 Cl    294 CCL4  -0.0812 
1630 CL      15.4359   -13.4673   -12.8386 Cl    294 CCL4  -0.0812 
1631 CL      16.1569   -11.7231   -15.0548 Cl    294 CCL4  -0.0812 
1632 CL      10.1361   -15.5528   -17.5108 Cl    295 CCL4  -0.0812 
1633 C       11.6689   -16.4111   -17.2119 C.3   295 CCL4   0.3246 
1634 CL      11.4586   -17.5313   -15.8408 Cl    295 CCL4  -0.0812 
1635 CL      12.9461   -15.2397   -16.8040 Cl    295 CCL4  -0.0812 
1636 CL      12.1439   -17.3227   -18.6679 Cl    295 CCL4  -0.0812 
1637 CL      12.4072    -3.0743    -9.4354 Cl    296 CCL4  -0.0812 
1638 C       13.5240    -2.1165   -10.4286 C.3   296 CCL4   0.3246 
1639 CL      15.1516    -2.2057    -9.7228 Cl    296 CCL4  -0.0812 
1640 CL      12.9929    -0.4217   -10.4157 Cl    296 CCL4  -0.0812 
1641 CL      13.5126    -2.7550   -12.0918 Cl    296 CCL4  -0.0812 
1642 CL       9.1609    -2.1738   -15.6547 Cl    297 CCL4  -0.0812 
1643 C       10.5521    -1.7790   -16.6905 C.3   297 CCL4   0.3246 
1644 CL      12.0353    -2.4642   -15.9862 Cl    297 CCL4  -0.0812 
1645 CL      10.7150    -0.0100   -16.8098 Cl    297 CCL4  -0.0812 
1646 CL      10.2875    -2.4677   -18.3083 Cl    297 CCL4  -0.0812 
1647 CL      12.6019   -15.2208    -6.6658 Cl    298 CCL4  -0.0812 
1648 C       12.4749   -14.1287    -8.0645 C.3   298 CCL4   0.3246 
1649 CL      10.9328   -13.2395    -7.9933 Cl    298 CCL4  -0.0812 
1650 CL      12.5121   -15.0825    -9.5662 Cl    298 CCL4  -0.0812 
1651 CL      13.8518   -12.9945    -8.0593 Cl    298 CCL4  -0.0812 
1652 CL      10.9135   -11.6457   -11.8748 Cl    299 CCL4  -0.0812 
1653 C        9.4834   -10.5896   -11.7945 C.3   299 CCL4   0.3246 
1654 CL       8.0059   -11.5169   -12.1255 Cl    299 CCL4  -0.0812 
1655 CL       9.6404    -9.2715   -12.9722 Cl    299 CCL4  -0.0812 
1656 CL       9.3656    -9.9094   -10.1622 Cl    299 CCL4  -0.0812 
1657 CL      12.4870   -18.5064    -8.5092 Cl    300 CCL4  -0.0812 
1658 C       13.9914   -19.2452    -7.9040 C.3   300 CCL4   0.3246 
1659 CL      15.0667   -19.5869    -9.2781 Cl    300 CCL4  -0.0812 
1660 CL      13.6006   -20.7517    -7.0430 Cl    300 CCL4  -0.0812 
1661 CL      14.7955   -18.1288    -6.7783 Cl    300 CCL4  -0.0812 
1662 CL      -4.2868   -16.1876    -3.8365 Cl    301 CCL4  -0.0812 
1663 C       -4.2220   -15.6081    -2.1578 C.3   301 CCL4   0.3246 
1664 CL      -4.0086   -13.8419    -2.1402 Cl    301 CCL4  -0.0812 
1665 CL      -5.7462   -16.0026    -1.3314 Cl    301 CCL4  -0.0812 
1666 CL      -2.8754   -16.3775    -1.2832 Cl    301 CCL4  -0.0812 
1667 CL      12.0346     2.1460    -5.2925 Cl    302 CCL4  -0.0812 
1668 C       12.4839     1.4263    -6.8567 C.3   302 CCL4   0.3246 
1669 CL      14.2476     1.4922    -7.0656 Cl    302 CCL4  -0.0812 
1670 CL      11.7159     2.3557    -8.1619 Cl    302 CCL4  -0.0812 
1671 CL      11.9301    -0.2668    -6.9185 Cl    302 CCL4  -0.0812 
1672 CL       8.7306    -1.8647    -1.6465 Cl    303 CCL4  -0.0812 
1673 C       10.4529    -1.5855    -1.3117 C.3   303 CCL4   0.3246 
1674 CL      10.6731     0.1093    -0.8216 Cl    303 CCL4  -0.0812 
1675 CL      11.4144    -1.9372    -2.7655 Cl    303 CCL4  -0.0812 
1676 CL      10.9528    -2.6844    -0.0092 Cl    303 CCL4  -0.0812 
1677 CL      11.8071   -16.7631    -0.0908 Cl    304 CCL4  -0.0812 
1678 C       11.7979   -15.3413    -1.1591 C.3   304 CCL4   0.3246 
1679 CL      10.1602   -15.0883    -1.8043 Cl    304 CCL4  -0.0812 
1680 CL      12.9239   -15.6086    -2.5122 Cl    304 CCL4  -0.0812 
1681 CL      12.3065   -13.9026    -0.2459 Cl    304 CCL4  -0.0812 
1682 CL       8.3789    -3.4800     4.4287 Cl    305 CCL4  -0.0812 
1683 C        7.5810    -2.1094     3.6325 C.3   305 CCL4   0.3246 
1684 CL       8.7802    -1.2362     2.6561 Cl    305 CCL4  -0.0812 
1685 CL       6.8954    -1.0125     4.8532 Cl    305 CCL4  -0.0812 
1686 CL       6.2938    -2.6983     2.5562 Cl    305 CCL4  -0.0812 
1687 CL       9.0013    -8.0455    22.2617 Cl    306 CCL4  -0.0812 
1688 C        9.3671    -6.3266    21.9535 C.3   306 CCL4   0.3246 
1689 CL      10.3177    -5.6703    23.3056 Cl    306 CCL4  -0.0812 
1690 CL       7.8459    -5.4190    21.7696 Cl    306 CCL4  -0.0812 
1691 CL      10.3174    -6.1889    20.4565 Cl    306 CCL4  -0.0812 
1692 CL      13.5984    -6.3414    -9.9547 Cl    307 CCL4  -0.0812 
1693 C       12.3734    -7.3655    -9.1725 C.3   307 CCL4   0.3246 
1694 CL      12.4195    -7.1187    -7.4130 Cl    307 CCL4  -0.0812 
1695 CL      12.7192    -9.0694    -9.5470 Cl    307 CCL4  -0.0812 
1696 CL      10.7595    -6.9061    -9.7526 Cl    307 CCL4  -0.0812 
1697 CL       7.4962    -3.9197   -13.0365 Cl    308 CCL4  -0.0812 
1698 C        8.2895    -5.4866   -12.7772 C.3   308 CCL4   0.3246 
1699 CL       7.6598    -6.2209   -11.2859 Cl    308 CCL4  -0.0812 
1700 CL      10.0443    -5.2112   -12.6408 Cl    308 CCL4  -0.0812 
1701 CL       7.9513    -6.5433   -14.1690 Cl    308 CCL4  -0.0812 
1702 CL      10.0785    -0.8879   -12.2098 Cl    309 CCL4  -0.0812 
1703 C        8.8303    -0.8355   -10.9471 C.3   309 CCL4   0.3246 
1704 CL       9.2009     0.4492    -9.7750 Cl    309 CCL4  -0.0812 
1705 CL       8.8144    -2.4024   -10.1103 Cl    309 CCL4  -0.0812 
1706 CL       7.2508    -0.5325   -11.7092 Cl    309 CCL4  -0.0812 
1707 CL      -5.5748    -9.9116    10.4063 Cl    310 CCL4  -0.0812 
1708 C       -5.6664    -8.5742    11.5762 C.3   310 CCL4   0.3246 
1709 CL      -6.7889    -7.3290    10.9959 Cl    310 CCL4  -0.0812 
1710 CL      -4.0541    -7.8527    11.7777 Cl    310 CCL4  -0.0812 
1711 CL      -6.2372    -9.1619    13.1520 Cl    310 CCL4  -0.0812 
1712 CL       7.4309   -12.4155     7.4304 Cl    311 CCL4  -0.0812 
1713 C        7.8184   -12.2776     9.1553 C.3   311 CCL4   0.3246 
1714 CL       7.2423   -13.7341     9.9979 Cl    311 CCL4  -0.0812 
1715 CL       6.9899   -10.8674     9.8571 Cl    311 CCL4  -0.0812 
1716 CL       9.5824   -12.1318     9.3641 Cl    311 CCL4  -0.0812 
1717 CL       5.0357    21.6455    12.1299 Cl    312 CCL4  -0.0812 
1718 C        3.3298    21.4135    12.5747 C.3   312 CCL4   0.3246 
1719 CL       3.2524    20.6978    14.2033 Cl    312 CCL4  -0.0812 
1720 CL       2.5271    20.3446    11.4006 Cl    312 CCL4  -0.0812 
1721 CL       2.4770    22.9716    12.5951 Cl    312 CCL4  -0.0812 
1722 CL      -1.2345    -9.8020    13.1585 Cl    313 CCL4  -0.0812 
1723 C       -0.9528   -11.4818    12.6353 C.3   313 CCL4   0.3246 
1724 CL      -1.4191   -12.5947    13.9477 Cl    313 CCL4  -0.0812 
1725 CL       0.7638   -11.7199    12.2416 Cl    313 CCL4  -0.0812 
1726 CL      -1.9433   -11.8217    11.1927 Cl    313 CCL4  -0.0812 
1727 CL       1.9324    -0.2438    13.1869 Cl    314 CCL4  -0.0812 
1728 C        0.4838     0.7008    12.7694 C.3   314 CCL4   0.3246 
1729 CL      -0.8624     0.2426    13.8447 Cl    314 CCL4  -0.0812 
1730 CL       0.0255     0.3862    11.0789 Cl    314 CCL4  -0.0812 
1731 CL       0.8327     2.4354    12.9887 Cl    314 CCL4  -0.0812 
1732 CL       4.5320   -13.2941    12.5182 Cl    315 CCL4  -0.0812 
1733 C        3.7516   -14.8873    12.6766 C.3   315 CCL4   0.3246 
1734 CL       4.9389   -16.0550    13.3166 Cl    315 CCL4  -0.0812 
1735 CL       3.1957   -15.4203    11.0690 Cl    315 CCL4  -0.0812 
1736 CL       2.3658   -14.7703    13.7905 Cl    315 CCL4  -0.0812 
1737 CL      -0.5774    21.2762    13.7032 Cl    316 CCL4  -0.0812 
1738 C       -1.4176    22.6543    14.4578 C.3   316 CCL4   0.3246 
1739 CL      -0.3751    23.3624    15.7182 Cl    316 CCL4  -0.0812 
1740 CL      -2.9297    22.0844    15.2093 Cl    316 CCL4  -0.0812 
1741 CL      -1.7922    23.8773    13.2290 Cl    316 CCL4  -0.0812 
1742 CL       5.9587     0.4422     8.8418 Cl    317 CCL4  -0.0812 
1743 C        4.4524     1.3557     8.5823 C.3   317 CCL4   0.3246 
1744 CL       3.9084     1.1682     6.8945 Cl    317 CCL4  -0.0812 
1745 CL       4.7261     3.0725     8.9601 Cl    317 CCL4  -0.0812 
1746 CL       3.1828     0.7575     9.6749 Cl    317 CCL4  -0.0812 
1747 CL      10.1852   -14.4290     2.5288 Cl    318 CCL4  -0.0812 
1748 C       10.3945   -15.4488     3.9680 C.3   318 CCL4   0.3246 
1749 CL      10.5561   -17.1492     3.4677 Cl    318 CCL4  -0.0812 
1750 CL       8.9626   -15.2702     5.0071 Cl    318 CCL4  -0.0812 
1751 CL      11.8541   -14.9279     4.8426 Cl    318 CCL4  -0.0812 
1752 CL       5.0771   -15.3827     7.6355 Cl    319 CCL4  -0.0812 
1753 C        5.2392   -17.1087     8.0422 C.3   319 CCL4   0.3246 
1754 CL       3.6276   -17.8720     8.0179 Cl    319 CCL4  -0.0812 
1755 CL       5.9467   -17.2819     9.6654 Cl    319 CCL4  -0.0812 
1756 CL       6.2874   -17.8982     6.8369 Cl    319 CCL4  -0.0812 
1757 CL      -1.6687   -15.8893     4.5029 Cl    320 CCL4  -0.0812 
1758 C       -1.5921   -17.6374     4.7950 C.3   320 CCL4   0.3246 
1759 CL      -2.5431   -18.0264     6.2477 Cl    320 CCL4  -0.0812 
1760 CL       0.1017   -18.1269     5.0341 Cl    320 CCL4  -0.0812 
1761 CL      -2.2933   -18.4877     3.3984 Cl    320 CCL4  -0.0812 
1762 CL       1.9274   -10.5602     6.4237 Cl    321 CCL4  -0.0812 
1763 C        2.0829   -12.0808     7.3381 C.3   321 CCL4   0.3246 
1764 CL       0.7488   -12.1965     8.5056 Cl    321 CCL4  -0.0812 
1765 CL       3.6287   -12.0971     8.2276 Cl    321 CCL4  -0.0812 
1766 CL       2.0331   -13.4618     6.2158 Cl    321 CCL4  -0.0812 
1767 CL      -4.4730   -13.6700     5.6330 Cl    322 CCL4  -0.0812 
1768 C       -3.3832   -12.7894     6.7270 C.3   322 CCL4   0.3246 
1769 CL      -3.3922   -13.5593     8.3253 Cl    322 CCL4  -0.0812 
1770 CL      -3.9252   -11.1009     6.8935 Cl    322 CCL4  -0.0812 
1771 CL      -1.7365   -12.8045     6.0557 Cl    322 CCL4  -0.0812 
1772 CL       0.1060   -17.8574     9.7760 Cl    323 CCL4  -0.0812 
1773 C       -0.8273   -16.3445     9.6786 C.3   323 CCL4   0.3246 
1774 CL      -0.4335   -15.5135     8.1559 Cl    323 CCL4  -0.0812 
1775 CL      -0.4212   -15.2687    11.0384 Cl    323 CCL4  -0.0812 
1776 CL      -2.5636   -16.7314     9.7176 Cl    323 CCL4  -0.0812 
1777 CL      -3.4392     1.1686    11.4535 Cl    324 CCL4  -0.0812 
1778 C       -5.0148     0.9380    12.2456 C.3   324 CCL4   0.3246 
1779 CL      -6.2978     1.5861    11.1945 Cl    324 CCL4  -0.0812 
1780 CL      -4.9980     1.7819    13.8095 Cl    324 CCL4  -0.0812 
1781 CL      -5.2803    -0.7966    12.5251 Cl    324 CCL4  -0.0812 
1782 CL      -2.5636    24.6971    18.8051 Cl    325 CCL4  -0.0812 
1783 C       -1.8514    23.4847    19.8971 C.3   325 CCL4   0.3246 
1784 CL      -2.9175    23.2472    21.3077 Cl    325 CCL4  -0.0812 
1785 CL      -0.2507    24.0439    20.4408 Cl    325 CCL4  -0.0812 
1786 CL      -1.6671    21.9468    19.0200 Cl    325 CCL4  -0.0812 
1787 CL       5.6668   -14.5089    17.0374 Cl    326 CCL4  -0.0812 
1788 C        6.5561   -13.6900    18.3449 C.3   326 CCL4   0.3246 
1789 CL       7.4260   -12.2861    17.6808 Cl    326 CCL4  -0.0812 
1790 CL       7.7324   -14.8060    19.0723 Cl    326 CCL4  -0.0812 
1791 CL       5.3859   -13.1479    19.5739 Cl    326 CCL4  -0.0812 
1792 CL       4.2743   -10.4421    16.4325 Cl    327 CCL4  -0.0812 
1793 C        2.5154   -10.2187    16.5880 C.3   327 CCL4   0.3246 
1794 CL       2.1041   -10.0896    18.3108 Cl    327 CCL4  -0.0812 
1795 CL       1.6773   -11.6143    15.8748 Cl    327 CCL4  -0.0812 
1796 CL       2.0148    -8.7408    15.7319 Cl    327 CCL4  -0.0812 
1797 CL       8.0660   -20.2970    17.0525 Cl    328 CCL4  -0.0812 
1798 C        7.7216   -18.6145    17.5224 C.3   328 CCL4   0.3246 
1799 CL       6.4372   -17.9546    16.4835 Cl    328 CCL4  -0.0812 
1800 CL       9.2016   -17.6416    17.3428 Cl    328 CCL4  -0.0812 
1801 CL       7.1982   -18.5714    19.2200 Cl    328 CCL4  -0.0812 
1802 CL       5.2776    -7.7891    11.4722 Cl    329 CCL4  -0.0812 
1803 C        3.5818    -8.2952    11.4994 C.3   329 CCL4   0.3246 
1804 CL       3.0215    -8.6753     9.8522 Cl    329 CCL4  -0.0812 
1805 CL       2.5731    -7.0037    12.1981 Cl    329 CCL4  -0.0812 
1806 CL       3.4606    -9.7486    12.5067 Cl    329 CCL4  -0.0812 
1807 CL       3.8927    -2.2094    17.1784 Cl    330 CCL4  -0.0812 
1808 C        2.6285    -3.1364    16.3312 C.3   330 CCL4   0.3246 
1809 CL       2.1626    -4.5655    17.2900 Cl    330 CCL4  -0.0812 
1810 CL       3.2325    -3.6573    14.7368 Cl    330 CCL4  -0.0812 
1811 CL       1.2021    -2.0987    16.1076 Cl    330 CCL4  -0.0812 
1812 CL      -1.0169    -3.4238    13.5273 Cl    331 CCL4  -0.0812 
1813 C       -2.2411    -4.3234    14.4592 C.3   331 CCL4   0.3246 
1814 CL      -1.7203    -6.0136    14.6658 Cl    331 CCL4  -0.0812 
1815 CL      -3.8095    -4.2927    13.6111 Cl    331 CCL4  -0.0812 
1816 CL      -2.4218    -3.5639    16.0577 Cl    331 CCL4  -0.0812 
1817 CL      14.6704    -7.3050     4.2195 Cl    332 CCL4  -0.0812 
1818 C       13.5402    -6.1716     3.4490 C.3   332 CCL4   0.3246 
1819 CL      14.4715    -4.8858     2.6441 Cl    332 CCL4  -0.0812 
1820 CL      12.4686    -5.4677     4.6788 Cl    332 CCL4  -0.0812 
1821 CL      12.5646    -7.0346     2.2339 Cl    332 CCL4  -0.0812 
1822 CL       4.1371    -4.8596     9.8267 Cl    333 CCL4  -0.0812 
1823 C        3.3443    -3.2897    10.0714 C.3   333 CCL4   0.3246 
1824 CL       1.7576    -3.5452    10.8341 Cl    333 CCL4  -0.0812 
1825 CL       3.1148    -2.4991     8.4982 Cl    333 CCL4  -0.0812 
1826 CL       4.3425    -2.2567    11.1202 Cl    333 CCL4  -0.0812 
1827 CL       5.1055    -5.4949     4.1818 Cl    334 CCL4  -0.0812 
1828 C        4.4000    -4.5419     5.5148 C.3   334 CCL4   0.3246 
1829 CL       3.2570    -5.5636     6.4109 Cl    334 CCL4  -0.0812 
1830 CL       3.5322    -3.1270     4.8727 Cl    334 CCL4  -0.0812 
1831 CL       5.7076    -4.0126     6.5954 Cl    334 CCL4  -0.0812 
1832 CL      -1.4301    -8.6661     4.8221 Cl    335 CCL4  -0.0812 
1833 C       -0.8784    -7.8490     3.3391 C.3   335 CCL4   0.3246 
1834 CL      -1.5296    -6.1918     3.2939 Cl    335 CCL4  -0.0812 
1835 CL      -1.4425    -8.7570     1.9136 Cl    335 CCL4  -0.0812 
1836 CL       0.9007    -7.7818     3.3443 Cl    335 CCL4  -0.0812 
1837 CL      -3.1894    -3.1969     7.6401 Cl    336 CCL4  -0.0812 
1838 C       -3.9216    -2.8902     9.2335 C.3   336 CCL4   0.3246 
1839 CL      -5.0237    -4.2088     9.7070 Cl    336 CCL4  -0.0812 
1840 CL      -4.8448    -1.3715     9.1321 Cl    336 CCL4  -0.0812 
1841 CL      -2.6349    -2.7193    10.4448 Cl    336 CCL4  -0.0812 
1842 CL      -0.4377    -8.2255     8.8679 Cl    337 CCL4  -0.0812 
1843 C       -1.1115    -6.5922     9.0846 C.3   337 CCL4   0.3246 
1844 CL      -2.8047    -6.5839     8.5466 Cl    337 CCL4  -0.0812 
1845 CL      -0.1672    -5.4223     8.1302 Cl    337 CCL4  -0.0812 
1846 CL      -1.0354    -6.1432    10.8054 Cl    337 CCL4  -0.0812 
1847 CL      -5.8147    -7.8559     7.2721 Cl    338 CCL4  -0.0812 
1848 C       -6.0923    -6.7733     5.8933 C.3   338 CCL4   0.3246 
1849 CL      -7.7773    -6.9529     5.3477 Cl    338 CCL4  -0.0812 
1850 CL      -4.9741    -7.1887     4.5767 Cl    338 CCL4  -0.0812 
1851 CL      -5.8164    -5.0919     6.3821 Cl    338 CCL4  -0.0812 
1852 CL       7.1054   -10.8218     3.6369 Cl    339 CCL4  -0.0812 
1853 C        5.4739   -10.9595     4.3322 C.3   339 CCL4   0.3246 
1854 CL       5.0617   -12.6766     4.5462 Cl    339 CCL4  -0.0812 
1855 CL       4.2841   -10.1803     3.2616 Cl    339 CCL4  -0.0812 
1856 CL       5.4480   -10.1286     5.9002 Cl    339 CCL4  -0.0812 
1857 CL       5.6574    -5.2037    17.3821 Cl    340 CCL4  -0.0812 
1858 C        6.4331    -6.3708    16.2916 C.3   340 CCL4   0.3246 
1859 CL       5.3709    -6.6876    14.9000 Cl    340 CCL4  -0.0812 
1860 CL       6.7142    -7.8810    17.1899 Cl    340 CCL4  -0.0812 
1861 CL       7.9834    -5.6962    15.7286 Cl    340 CCL4  -0.0812 
1862 CL       8.5663     0.3602    20.4240 Cl    341 CCL4  -0.0812 
1863 C        7.3353    -0.6616    19.6410 C.3   341 CCL4   0.3246 
1864 CL       8.1182    -2.0507    18.8570 Cl    341 CCL4  -0.0812 
1865 CL       6.4523     0.2816    18.4162 Cl    341 CCL4  -0.0812 
1866 CL       6.2130    -1.2610    20.8870 Cl    341 CCL4  -0.0812 
1867 CL      -5.1275    -7.9464    21.7105 Cl    342 CCL4  -0.0812 
1868 C       -5.0204    -6.7043    20.4414 C.3   342 CCL4   0.3246 
1869 CL      -4.0157    -5.3532    21.0198 Cl    342 CCL4  -0.0812 
1870 CL      -6.6481    -6.1070    20.0536 Cl    342 CCL4  -0.0812 
1871 CL      -4.2851    -7.3976    18.9786 Cl    342 CCL4  -0.0812 
1872 CL      -4.0855   -10.9351    19.3489 Cl    343 CCL4  -0.0812 
1873 C       -3.0063   -11.3029    17.9781 C.3   343 CCL4   0.3246 
1874 CL      -3.3790   -12.9249    17.3454 Cl    343 CCL4  -0.0812 
1875 CL      -1.3129   -11.2579    18.5224 Cl    343 CCL4  -0.0812 
1876 CL      -3.2350   -10.1052    16.6855 Cl    343 CCL4  -0.0812 
1877 CL      12.6313    -9.0259     9.9110 Cl    344 CCL4  -0.0812 
1878 C       12.8869    -7.3393     9.4157 C.3   344 CCL4   0.3246 
1879 CL      12.5236    -7.1945     7.6874 Cl    344 CCL4  -0.0812 
1880 CL      14.5769    -6.8530     9.6983 Cl    344 CCL4  -0.0812 
1881 CL      11.8036    -6.2835    10.3446 Cl    344 CCL4  -0.0812 
1882 CL       9.7550   -14.1611    12.3351 Cl    345 CCL4  -0.0812 
1883 C        9.4206   -15.5400    13.4050 C.3   345 CCL4   0.3246 
1884 CL       8.3253   -15.0214    14.7065 Cl    345 CCL4  -0.0812 
1885 CL      10.9507   -16.1282    14.1040 Cl    345 CCL4  -0.0812 
1886 CL       8.6626   -16.8442    12.4616 Cl    345 CCL4  -0.0812 
1887 CL      17.3721    -8.3606    12.7021 Cl    346 CCL4  -0.0812 
1888 C       16.3118    -9.6824    12.1650 C.3   346 CCL4   0.3246 
1889 CL      14.6372    -9.3007    12.6129 Cl    346 CCL4  -0.0812 
1890 CL      16.7889   -11.1942    12.9726 Cl    346 CCL4  -0.0812 
1891 CL      16.4156    -9.8834    10.3994 Cl    346 CCL4  -0.0812 
1892 CL      12.0870    -2.3089     3.1684 Cl    347 CCL4  -0.0812 
1893 C       12.8172    -0.6977     3.0030 C.3   347 CCL4   0.3246 
1894 CL      13.2276    -0.3711     1.3033 Cl    347 CCL4  -0.0812 
1895 CL      14.3057    -0.6444     3.9689 Cl    347 CCL4  -0.0812 
1896 CL      11.6929     0.5461     3.6064 Cl    347 CCL4  -0.0812 
1897 CL      10.4081   -15.5841     8.1556 Cl    348 CCL4  -0.0812 
1898 C       11.7345   -16.7395     8.4252 C.3   348 CCL4   0.3246 
1899 CL      11.9923   -17.7246     6.9646 Cl    348 CCL4  -0.0812 
1900 CL      11.2966   -17.7994     9.7873 Cl    348 CCL4  -0.0812 
1901 CL      13.2292   -15.8532     8.8199 Cl    348 CCL4  -0.0812 
1902 CL      10.6325    -2.2157    14.5615 Cl    349 CCL4  -0.0812 
1903 C       12.0943    -1.4586    13.8974 C.3   349 CCL4   0.3246 
1904 CL      13.2715    -1.2425    15.2161 Cl    349 CCL4  -0.0812 
1905 CL      11.6874     0.1275    13.1887 Cl    349 CCL4  -0.0812 
1906 CL      12.7965    -2.5221    12.6548 Cl    349 CCL4  -0.0812 
1907 CL      13.0130   -11.6300     4.6806 Cl    350 CCL4  -0.0812 
1908 C       11.4149   -10.8817     4.4578 C.3   350 CCL4   0.3246 
1909 CL      10.2382   -11.6970     5.5094 Cl    350 CCL4  -0.0812 
1910 CL      10.9171   -11.0354     2.7579 Cl    350 CCL4  -0.0812 
1911 CL      11.5133    -9.1656     4.9069 Cl    350 CCL4  -0.0812 
1912 CL       9.3869    -1.4799     7.4442 Cl    351 CCL4  -0.0812 
1913 C       10.9280    -1.7407     8.2941 C.3   351 CCL4   0.3246 
1914 CL      11.2319    -3.4773     8.4939 Cl    351 CCL4  -0.0812 
1915 CL      10.8776    -0.9526     9.8860 Cl    351 CCL4  -0.0812 
1916 CL      12.2477    -1.0395     7.3257 Cl    351 CCL4  -0.0812 
1917 CL      13.2235   -14.8289    18.1170 Cl    352 CCL4  -0.0812 
1918 C       12.5975   -13.5186    17.0844 C.3   352 CCL4   0.3246 
1919 CL      10.8882   -13.8282    16.7202 Cl    352 CCL4  -0.0812 
1920 CL      13.5343   -13.4246    15.5703 Cl    352 CCL4  -0.0812 
1921 CL      12.6977   -11.9694    17.9518 Cl    352 CCL4  -0.0812 
1922 CL      10.4469   -11.0576    14.3227 Cl    353 CCL4  -0.0812 
1923 C        9.0958   -10.2067    13.5274 C.3   353 CCL4   0.3246 
1924 CL       7.7180   -11.3156    13.3409 Cl    353 CCL4  -0.0812 
1925 CL       9.6102    -9.6141    11.9332 Cl    353 CCL4  -0.0812 
1926 CL       8.6108    -8.8197    14.5147 Cl    353 CCL4  -0.0812 
1927 CL      13.2063   -18.6742    16.5386 Cl    354 CCL4  -0.0812 
1928 C       14.9002   -18.2038    16.8139 C.3   354 CCL4   0.3246 
1929 CL      15.2574   -16.7318    15.8817 Cl    354 CCL4  -0.0812 
1930 CL      15.9694   -19.5218    16.2749 Cl    354 CCL4  -0.0812 
1931 CL      15.1554   -17.9104    18.5499 Cl    354 CCL4  -0.0812 
1932 CL       9.5599     2.7509    18.0853 Cl    355 CCL4  -0.0812 
1933 C       10.9930     1.8733    17.5027 C.3   355 CCL4   0.3246 
1934 CL      12.3512     2.1577    18.6181 Cl    355 CCL4  -0.0812 
1935 CL      11.4175     2.4927    15.8909 Cl    355 CCL4  -0.0812 
1936 CL      10.6320     0.1351    17.4079 Cl    355 CCL4  -0.0812 
1937 CL       9.0180    -8.8960     7.9576 Cl    356 CCL4  -0.0812 
1938 C        8.2299    -7.5182     7.1535 C.3   356 CCL4   0.3246 
1939 CL       9.1403    -6.0399     7.5045 Cl    356 CCL4  -0.0812 
1940 CL       6.5569    -7.3305     7.7372 Cl    356 CCL4  -0.0812 
1941 CL       8.2190    -7.7710     5.3914 Cl    356 CCL4  -0.0812 
1942 CL      14.9016    -6.7638    15.1682 Cl    357 CCL4  -0.0812 
1943 C       13.2364    -7.2752    15.5344 C.3   357 CCL4   0.3246 
1944 CL      12.6718    -6.4389    17.0006 Cl    357 CCL4  -0.0812 
1945 CL      13.1876    -9.0357    15.7923 Cl    357 CCL4  -0.0812 
1946 CL      12.1765    -6.8477    14.1680 Cl    357 CCL4  -0.0812 
1947 CL       7.6372    -3.8562     9.6493 Cl    358 CCL4  -0.0812 
1948 C        8.0252    -4.7342    11.1467 C.3   358 CCL4   0.3246 
1949 CL       6.7165    -4.5044    12.3246 Cl    358 CCL4  -0.0812 
1950 CL       9.5352    -4.0988    11.8292 Cl    358 CCL4  -0.0812 
1951 CL       8.2378    -6.4630    10.8098 Cl    358 CCL4  -0.0812 
1952 CL       7.7856    -0.9860    12.5740 Cl    359 CCL4  -0.0812 
1953 C        7.1111    -0.5361    14.1618 C.3   359 CCL4   0.3246 
1954 CL       8.0710     0.7774    14.8884 Cl    359 CCL4  -0.0812 
1955 CL       7.1380    -1.9479    15.2483 Cl    359 CCL4  -0.0812 
1956 CL       5.4295     0.0043    13.9650 Cl    359 CCL4  -0.0812 
1957 CL      -4.9409    15.3850   -13.3581 Cl    360 CCL4  -0.0812 
1958 C       -5.5163    16.9342   -12.7037 C.3   360 CCL4   0.3246 
1959 CL      -7.2732    17.0457   -12.9535 Cl    360 CCL4  -0.0812 
1960 CL      -4.7006    18.2709   -13.5576 Cl    360 CCL4  -0.0812 
1961 CL      -5.1547    17.0021   -10.9593 Cl    360 CCL4  -0.0812 
1962 CL       6.6367    12.9859   -17.0458 Cl    361 CCL4  -0.0812 
1963 C        7.2836    13.0154   -15.3949 C.3   361 CCL4   0.3246 
1964 CL       6.9577    11.4497   -14.6133 Cl    361 CCL4  -0.0812 
1965 CL       6.4496    14.2935   -14.4851 Cl    361 CCL4  -0.0812 
1966 CL       9.0355    13.3319   -15.4381 Cl    361 CCL4  -0.0812 
1967 CL       5.7852     3.4509   -12.9101 Cl    362 CCL4  -0.0812 
1968 C        4.3840     4.5243   -12.6761 C.3   362 CCL4   0.3246 
1969 CL       3.1790     4.2751   -13.9648 Cl    362 CCL4  -0.0812 
1970 CL       4.9342     6.2121   -12.7251 Cl    362 CCL4  -0.0812 
1971 CL       3.6396     4.2068   -11.0897 Cl    362 CCL4  -0.0812 
1972 CL      -1.7778    14.3364   -11.3143 Cl    363 CCL4  -0.0812 
1973 C       -1.1445    12.9913   -12.2915 C.3   363 CCL4   0.3246 
1974 CL      -0.1366    11.9647   -11.2595 Cl    363 CCL4  -0.0812 
1975 CL      -0.1698    13.6379   -13.6306 Cl    363 CCL4  -0.0812 
1976 CL      -2.5094    12.0524   -12.9356 Cl    363 CCL4  -0.0812 
1977 CL       5.0261     9.3147     2.9052 Cl    364 CCL4  -0.0812 
1978 C        3.4178     8.5508     2.9682 C.3   364 CCL4   0.3246 
1979 CL       2.6980     8.6062     1.3463 Cl    364 CCL4  -0.0812 
1980 CL       2.3883     9.4116     4.1391 Cl    364 CCL4  -0.0812 
1981 CL       3.5799     6.8515     3.4623 Cl    364 CCL4  -0.0812 
1982 CL       3.1091    11.7957   -12.2810 Cl    365 CCL4  -0.0812 
1983 C        3.3466    10.0600   -11.9609 C.3   365 CCL4   0.3246 
1984 CL       4.9471     9.8134   -11.2255 Cl    365 CCL4  -0.0812 
1985 CL       3.2633     9.1587   -13.4935 Cl    365 CCL4  -0.0812 
1986 CL       2.0969     9.4477   -10.8504 Cl    365 CCL4  -0.0812 
1987 CL      -0.9636     4.0965   -15.7176 Cl    366 CCL4  -0.0812 
1988 C       -2.5167     3.2309   -15.6868 C.3   366 CCL4   0.3246 
1989 CL      -2.2333     1.4731   -15.6511 Cl    366 CCL4  -0.0812 
1990 CL      -3.4528     3.6345   -17.1424 Cl    366 CCL4  -0.0812 
1991 CL      -3.4631     3.7265   -14.2661 Cl    366 CCL4  -0.0812 
1992 CL       3.9717     4.1483    -6.7197 Cl    367 CCL4  -0.0812 
1993 C        3.6558     2.4821    -7.2588 C.3   367 CCL4   0.3246 
1994 CL       4.8982     2.0080    -8.4428 Cl    367 CCL4  -0.0812 
1995 CL       2.0495     2.3994    -8.0220 Cl    367 CCL4  -0.0812 
1996 CL       3.7147     1.3996    -5.8471 Cl    367 CCL4  -0.0812 
1997 CL      -0.1584     4.8759   -12.3307 Cl    368 CCL4  -0.0812 
1998 C       -1.1137     5.5136   -10.9778 C.3   368 CCL4   0.3246 
1999 CL      -0.1152     6.6838   -10.0827 Cl    368 CCL4  -0.0812 
2000 CL      -1.5858     4.1871    -9.8892 Cl    368 CCL4  -0.0812 
2001 CL      -2.5738     6.2894   -11.6341 Cl    368 CCL4  -0.0812 
2002 CL      -5.8657    14.4396     2.2605 Cl    369 CCL4  -0.0812 
2003 C       -4.4823    13.8354     1.3212 C.3   369 CCL4   0.3246 
2004 CL      -3.0212    13.8311     2.3338 Cl    369 CCL4  -0.0812 
2005 CL      -4.2181    14.8701    -0.1023 Cl    369 CCL4  -0.0812 
2006 CL      -4.8135    12.1705     0.7926 Cl    369 CCL4  -0.0812 
2007 CL       5.1458     9.7948    22.7049 Cl    370 CCL4  -0.0812 
2008 C        5.4096     8.0700    22.3845 C.3   370 CCL4   0.3246 
2009 CL       3.9813     7.1711    22.9460 Cl    370 CCL4  -0.0812 
2010 CL       6.8629     7.5182    23.2525 Cl    370 CCL4  -0.0812 
2011 CL       5.6345     7.7921    20.6376 Cl    370 CCL4  -0.0812 
2012 CL       2.8851    13.1995    22.4690 Cl    371 CCL4  -0.0812 
2013 C        1.5559    12.0252    22.6212 C.3   371 CCL4   0.3246 
2014 CL      -0.0044    12.8220    22.2846 Cl    371 CCL4  -0.0812 
2015 CL       1.5463    11.3988    24.2843 Cl    371 CCL4  -0.0812 
2016 CL       1.7870    10.6763    21.4844 Cl    371 CCL4  -0.0812 
2017 CL       0.3134     7.8982   -15.9107 Cl    372 CCL4  -0.0812 
2018 C       -1.1134     8.5267   -15.0534 C.3   372 CCL4   0.3246 
2019 CL      -1.7029     9.9858   -15.8800 Cl    372 CCL4  -0.0812 
2020 CL      -0.6651     8.9398   -13.3844 Cl    372 CCL4  -0.0812 
2021 CL      -2.4076     7.3063   -15.0438 Cl    372 CCL4  -0.0812 
2022 CL      -1.4671     5.6116    -3.4891 Cl    373 CCL4  -0.0812 
2023 C       -0.7604     4.3534    -4.5352 C.3   373 CCL4   0.3246 
2024 CL      -2.0429     3.5896    -5.4998 Cl    373 CCL4  -0.0812 
2025 CL       0.0515     3.1092    -3.5493 Cl    373 CCL4  -0.0812 
2026 CL       0.4222     5.0900    -5.6438 Cl    373 CCL4  -0.0812 
2027 CL       6.1097     3.6562     0.7049 Cl    374 CCL4  -0.0812 
2028 C        6.8984     2.2232     1.4001 C.3   374 CCL4   0.3246 
2029 CL       8.3292     2.7235     2.3315 Cl    374 CCL4  -0.0812 
2030 CL       7.3982     1.1181     0.1066 Cl    374 CCL4  -0.0812 
2031 CL       5.7544     1.3846     2.4735 Cl    374 CCL4  -0.0812 
2032 CL       6.9086    13.3549    -1.2410 Cl    375 CCL4  -0.0812 
2033 C        7.4510    13.6494     0.4315 C.3   375 CCL4   0.3246 
2034 CL       6.0934    13.3823     1.5569 Cl    375 CCL4  -0.0812 
2035 CL       8.0168    15.3283     0.5899 Cl    375 CCL4  -0.0812 
2036 CL       8.7844    12.5364     0.8143 Cl    375 CCL4  -0.0812 
2037 CL       6.8566    10.6264    -7.3654 Cl    376 CCL4  -0.0812 
2038 C        6.0910    11.0705    -5.8204 C.3   376 CCL4   0.3246 
2039 CL       6.1949    12.8311    -5.5843 Cl    376 CCL4  -0.0812 
2040 CL       6.9158    10.2413    -4.4795 Cl    376 CCL4  -0.0812 
2041 CL       4.3786    10.5791    -5.8427 Cl    376 CCL4  -0.0812 
2042 CL       3.3063    12.6157    -8.4816 Cl    377 CCL4  -0.0812 
2043 C        1.8573    13.2524    -7.6660 C.3   377 CCL4   0.3246 
2044 CL       2.3046    13.9500    -6.0910 Cl    377 CCL4  -0.0812 
2045 CL       0.7013    11.9203    -7.4318 Cl    377 CCL4  -0.0812 
2046 CL       1.1126    14.5006    -8.6893 Cl    377 CCL4  -0.0812 
2047 CL       9.7045     6.9555    -8.4704 Cl    378 CCL4  -0.0812 
2048 C        8.1640     6.0815    -8.6278 C.3   378 CCL4   0.3246 
2049 CL       7.3529     6.5391   -10.1408 Cl    378 CCL4  -0.0812 
2050 CL       7.0923     6.4979    -7.2666 Cl    378 CCL4  -0.0812 
2051 CL       8.4698     4.3287    -8.6455 Cl    378 CCL4  -0.0812 
2052 CL       4.5448     6.3121    -1.2286 Cl    379 CCL4  -0.0812 
2053 C        3.9002     5.7314    -2.7834 C.3   379 CCL4   0.3246 
2054 CL       4.3079     6.8786    -4.0835 Cl    379 CCL4  -0.0812 
2055 CL       2.1345     5.6332    -2.6547 Cl    379 CCL4  -0.0812 
2056 CL       4.5680     4.1233    -3.1547 Cl    379 CCL4  -0.0812 
2057 CL       9.3555    15.2334    -5.3444 Cl    380 CCL4  -0.0812 
2058 C       10.3347    14.3562    -4.1441 C.3   380 CCL4   0.3246 
2059 CL       9.7539    12.6800    -4.0200 Cl    380 CCL4  -0.0812 
2060 CL      10.1722    15.1542    -2.5626 Cl    380 CCL4  -0.0812 
2061 CL      12.0439    14.3642    -4.6375 Cl    380 CCL4  -0.0812 
2062 CL      -2.2411     9.3715   -10.0688 Cl    381 CCL4  -0.0812 
2063 C       -3.0755     8.8691    -8.5793 C.3   381 CCL4   0.3246 
2064 CL      -4.6958     9.6044    -8.5506 Cl    381 CCL4  -0.0812 
2065 CL      -2.1462     9.3904    -7.1563 Cl    381 CCL4  -0.0812 
2066 CL      -3.2696     7.1041    -8.5082 Cl    381 CCL4  -0.0812 
2067 CL       4.6612    17.6178   -12.8909 Cl    382 CCL4  -0.0812 
2068 C        3.3598    16.5148   -12.3874 C.3   382 CCL4   0.3246 
2069 CL       2.6669    15.7411   -13.8344 Cl    382 CCL4  -0.0812 
2070 CL       2.1014    17.4260   -11.5103 Cl    382 CCL4  -0.0812 
2071 CL       4.0420    15.2784   -11.3063 Cl    382 CCL4  -0.0812 
2072 CL      -1.9689    16.5305   -16.9896 Cl    383 CCL4  -0.0812 
2073 C       -0.7543    17.5044   -17.8462 C.3   383 CCL4   0.3246 
2074 CL      -0.8553    17.1621   -19.5893 Cl    383 CCL4  -0.0812 
2075 CL       0.8687    17.0888   -17.2408 Cl    383 CCL4  -0.0812 
2076 CL      -1.0879    19.2327   -17.5663 Cl    383 CCL4  -0.0812 
2077 CL       3.9844    19.2943    -6.6674 Cl    384 CCL4  -0.0812 
2078 C        5.2669    18.3676    -7.4885 C.3   384 CCL4   0.3246 
2079 CL       4.6024    16.8336    -8.0979 Cl    384 CCL4  -0.0812 
2080 CL       6.5791    18.0252    -6.3334 Cl    384 CCL4  -0.0812 
2081 CL       5.9075    19.3065    -8.8541 Cl    384 CCL4  -0.0812 
2082 CL      -0.6449    18.1471    -1.9342 Cl    385 CCL4  -0.0812 
2083 C       -0.8150    16.8609    -3.1597 C.3   385 CCL4   0.3246 
2084 CL      -2.4635    16.8715    -3.8326 Cl    385 CCL4  -0.0812 
2085 CL      -0.4839    15.2817    -2.4045 Cl    385 CCL4  -0.0812 
2086 CL       0.3563    17.1289    -4.4708 Cl    385 CCL4  -0.0812 
2087 CL       6.6129    17.1851    -2.2506 Cl    386 CCL4  -0.0812 
2088 C        4.8808    16.8104    -2.3918 C.3   386 CCL4   0.3246 
2089 CL       4.6196    15.8547    -3.8657 Cl    386 CCL4  -0.0812 
2090 CL       3.9460    18.3228    -2.4931 Cl    386 CCL4  -0.0812 
2091 CL       4.3472    15.8801    -0.9710 Cl    386 CCL4  -0.0812 
2092 CL      -4.2715    15.0858    -6.3617 Cl    387 CCL4  -0.0812 
2093 C       -3.1432    13.7302    -6.1522 C.3   387 CCL4   0.3246 
2094 CL      -3.2847    12.6448    -7.5484 Cl    387 CCL4  -0.0812 
2095 CL      -3.5187    12.8314    -4.6650 Cl    387 CCL4  -0.0812 
2096 CL      -1.4817    14.3542    -6.0745 Cl    387 CCL4  -0.0812 
2097 CL       9.7810    19.5548    -1.1521 Cl    388 CCL4  -0.0812 
2098 C       10.4601    19.6633     0.4901 C.3   388 CCL4   0.3246 
2099 CL      12.0485    20.4682     0.4376 Cl    388 CCL4  -0.0812 
2100 CL      10.6392    18.0327     1.1794 Cl    388 CCL4  -0.0812 
2101 CL       9.3559    20.6002     1.5264 Cl    388 CCL4  -0.0812 
2102 CL      12.3984    16.1630   -16.5805 Cl    389 CCL4  -0.0812 
2103 C       12.1222    17.7044   -15.7384 C.3   389 CCL4   0.3246 
2104 CL      10.8010    18.5807   -16.5471 Cl    389 CCL4  -0.0812 
2105 CL      13.6052    18.6853   -15.7839 Cl    389 CCL4  -0.0812 
2106 CL      11.6666    17.3859   -14.0448 Cl    389 CCL4  -0.0812 
2107 CL      10.0852    10.6498   -13.1032 Cl    390 CCL4  -0.0812 
2108 C        9.7841     9.2116   -12.1041 C.3   390 CCL4   0.3246 
2109 CL       9.0347     9.6942   -10.5648 Cl    390 CCL4  -0.0812 
2110 CL      11.3336     8.3956   -11.7938 Cl    390 CCL4  -0.0812 
2111 CL       8.6974     8.1249   -12.9965 Cl    390 CCL4  -0.0812 
2112 CL      15.2387    13.8082   -11.6621 Cl    391 CCL4  -0.0812 
2113 C       14.6322    13.9004   -13.3332 C.3   391 CCL4   0.3246 
2114 CL      12.8624    13.7600   -13.3155 Cl    391 CCL4  -0.0812 
2115 CL      15.3236    12.5743   -14.2987 Cl    391 CCL4  -0.0812 
2116 CL      15.0913    15.4614   -14.0593 Cl    391 CCL4  -0.0812 
2117 CL      10.1727     9.3714   -16.9149 Cl    392 CCL4  -0.0812 
2118 C       11.7160     8.4998   -17.1065 C.3   392 CCL4   0.3246 
2119 CL      11.3916     6.7583   -17.2872 Cl    392 CCL4  -0.0812 
2120 CL      12.7277     8.7654   -15.6637 Cl    392 CCL4  -0.0812 
2121 CL      12.5580     9.1042   -18.5583 Cl    392 CCL4  -0.0812 
2122 CL       9.2580     4.9131   -14.4695 Cl    393 CCL4  -0.0812 
2123 C       10.4300     4.1990   -13.3391 C.3   393 CCL4   0.3246 
2124 CL      10.3667     5.0682   -11.7860 Cl    393 CCL4  -0.0812 
2125 CL      12.0664     4.3029   -14.0385 Cl    393 CCL4  -0.0812 
2126 CL       9.9917     2.4965   -13.0752 Cl    393 CCL4  -0.0812 
2127 CL      13.1469    11.2061    -6.3235 Cl    394 CCL4  -0.0812 
2128 C       12.2273    11.8993    -7.6822 C.3   394 CCL4   0.3246 
2129 CL      10.4842    11.8845    -7.3046 Cl    394 CCL4  -0.0812 
2130 CL      12.5153    10.9451    -9.1531 Cl    394 CCL4  -0.0812 
2131 CL      12.7654    13.5668    -7.9765 Cl    394 CCL4  -0.0812 
2132 CL      10.0229    13.1293   -10.5633 Cl    395 CCL4  -0.0812 
2133 C        8.4321    13.8988   -10.7184 C.3   395 CCL4   0.3246 
2134 CL       7.2362    12.7064   -11.2736 Cl    395 CCL4  -0.0812 
2135 CL       8.5496    15.2253   -11.8977 Cl    395 CCL4  -0.0812 
2136 CL       7.9260    14.5519    -9.1441 Cl    395 CCL4  -0.0812 
2137 CL      12.4728     5.7515    -6.7161 Cl    396 CCL4  -0.0812 
2138 C       13.9575     6.4373    -7.4202 C.3   396 CCL4   0.3246 
2139 CL      13.5374     7.7004    -8.5992 Cl    396 CCL4  -0.0812 
2140 CL      14.8515     5.1446    -8.2495 Cl    396 CCL4  -0.0812 
2141 CL      14.9254     7.1422    -6.1062 Cl    396 CCL4  -0.0812 
2142 CL      11.8570     9.4510     0.4792 Cl    397 CCL4  -0.0812 
2143 C       11.6078    10.0732    -1.1634 C.3   397 CCL4   0.3246 
2144 CL       9.8725     9.9816    -1.5428 Cl    397 CCL4  -0.0812 
2145 CL      12.5239     9.1042    -2.3437 Cl    397 CCL4  -0.0812 
2146 CL      12.1335    11.7695    -1.2419 Cl    397 CCL4  -0.0812 
2147 CL       7.6284     6.1202    -2.9518 Cl    398 CCL4  -0.0812 
2148 C        8.6992     4.7427    -3.2940 C.3   398 CCL4   0.3246 
2149 CL       7.9382     3.2391    -2.7220 Cl    398 CCL4  -0.0812 
2150 CL      10.2427     4.9981    -2.4448 Cl    398 CCL4  -0.0812 
2151 CL       8.9957     4.6353    -5.0422 Cl    398 CCL4  -0.0812 
2152 CL      11.1090     5.9618     2.7893 Cl    399 CCL4  -0.0812 
2153 C       12.2620     5.0787     1.7623 C.3   399 CCL4   0.3246 
2154 CL      12.9392     6.1819     0.5467 Cl    399 CCL4  -0.0812 
2155 CL      11.4268     3.7510     0.9282 Cl    399 CCL4  -0.0812 
2156 CL      13.5670     4.4114     2.7754 Cl    399 CCL4  -0.0812 
2157 CL       7.7014    16.2550    22.2815 Cl    400 CCL4  -0.0812 
2158 C        6.6609    17.4425    23.1056 C.3   400 CCL4   0.3246 
2159 CL       7.2998    17.7335    24.7381 Cl    400 CCL4  -0.0812 
2160 CL       4.9969    16.8188    23.1941 Cl    400 CCL4  -0.0812 
2161 CL       6.6859    18.9692    22.2018 Cl    400 CCL4  -0.0812 
2162 CL      13.0321    18.7638    -9.7909 Cl    401 CCL4  -0.0812 
2163 C       11.9296    17.6690    -8.9215 C.3   401 CCL4   0.3246 
2164 CL      10.3786    18.4896    -8.6142 Cl    401 CCL4  -0.0812 
2165 CL      12.6483    17.1513    -7.3748 Cl    401 CCL4  -0.0812 
2166 CL      11.6369    16.2428    -9.9422 Cl    401 CCL4  -0.0812 
2167 CL      -4.8418    15.5643    12.2967 Cl    402 CCL4  -0.0812 
2168 C       -5.3845    17.2480    12.4643 C.3   402 CCL4   0.3246 
2169 CL      -5.1413    18.0785    10.9116 Cl    402 CCL4  -0.0812 
2170 CL      -4.4316    18.0546    13.7316 Cl    402 CCL4  -0.0812 
2171 CL      -7.1082    17.2756    12.8991 Cl    402 CCL4  -0.0812 
2172 CL       6.7265    13.6740     8.3978 Cl    403 CCL4  -0.0812 
2173 C        7.2981    13.3322    10.0441 C.3   403 CCL4   0.3246 
2174 CL       7.9244    11.6675    10.1223 Cl    403 CCL4  -0.0812 
2175 CL       5.9538    13.5113    11.1951 Cl    403 CCL4  -0.0812 
2176 CL       8.5951    14.4731    10.4778 Cl    403 CCL4  -0.0812 
2177 CL       4.5281     3.4213    12.6314 Cl    404 CCL4  -0.0812 
2178 C        4.1635     5.1206    12.2307 C.3   404 CCL4   0.3246 
2179 CL       2.5706     5.2413    11.4415 Cl    404 CCL4  -0.0812 
2180 CL       5.4265     5.7454    11.1440 Cl    404 CCL4  -0.0812 
2181 CL       4.1591     6.1033    13.7125 Cl    404 CCL4  -0.0812 
2182 CL      -0.5307    14.0157    12.3942 Cl    405 CCL4  -0.0812 
2183 C       -1.5257    13.0330    13.4926 C.3   405 CCL4   0.3246 
2184 CL      -2.2476    14.0976    14.7184 Cl    405 CCL4  -0.0812 
2185 CL      -0.4935    11.8254    14.2977 Cl    405 CCL4  -0.0812 
2186 CL      -2.8215    12.2326    12.5716 Cl    405 CCL4  -0.0812 
2187 CL       2.7963    11.7979    13.0603 Cl    406 CCL4  -0.0812 
2188 C        3.1728    10.0662    13.1525 C.3   406 CCL4   0.3246 
2189 CL       4.3308     9.8002    14.4788 Cl    406 CCL4  -0.0812 
2190 CL       3.8977     9.5329    11.6128 Cl    406 CCL4  -0.0812 
2191 CL       1.6844     9.1395    13.4643 Cl    406 CCL4  -0.0812 
2192 CL       2.1644     5.3511    16.6887 Cl    407 CCL4  -0.0812 
2193 C        2.2040     3.7376    17.4348 C.3   407 CCL4   0.3246 
2194 CL       3.2085     2.6488    16.4486 Cl    407 CCL4  -0.0812 
2195 CL       0.5596     3.0705    17.5231 Cl    407 CCL4  -0.0812 
2196 CL       2.8823     3.8736    19.0752 Cl    407 CCL4  -0.0812 
2197 CL      -2.4210     4.2905    12.9884 Cl    408 CCL4  -0.0812 
2198 C       -2.1173     5.3398    14.3900 C.3   408 CCL4   0.3246 
2199 CL      -0.4980     6.0574    14.2176 Cl    408 CCL4  -0.0812 
2200 CL      -2.2106     4.3781    15.8834 Cl    408 CCL4  -0.0812 
2201 CL      -3.3494     6.6241    14.4404 Cl    408 CCL4  -0.0812 
2202 CL       8.0093    11.9874     4.3578 Cl    409 CCL4  -0.0812 
2203 C        9.2756    10.7459     4.2433 C.3   409 CCL4   0.3246 
2204 CL       8.8986     9.6613     2.8813 Cl    409 CCL4  -0.0812 
2205 CL       9.3370     9.8157     5.7618 Cl    409 CCL4  -0.0812 
2206 CL      10.8442    11.5431     3.9563 Cl    409 CCL4  -0.0812 
2207 CL       4.3129    10.1883     7.7895 Cl    410 CCL4  -0.0812 
2208 C        4.8883     8.5102     7.8792 C.3   410 CCL4   0.3246 
2209 CL       3.5995     7.4537     8.5132 Cl    410 CCL4  -0.0812 
2210 CL       6.3205     8.4243     8.9295 Cl    410 CCL4  -0.0812 
2211 CL       5.3520     7.9763     6.2491 Cl    410 CCL4  -0.0812 
2212 CL       0.1878    14.0516     8.8396 Cl    411 CCL4  -0.0812 
2213 C        1.3078    12.6659     8.8903 C.3   411 CCL4   0.3246 
2214 CL       0.8909    11.6238    10.2591 Cl    411 CCL4  -0.0812 
2215 CL       2.9669    13.2602     9.1358 Cl    411 CCL4  -0.0812 
2216 CL       1.2006    11.7385     7.3749 Cl    411 CCL4  -0.0812 
2217 CL      -4.7312    13.8217     5.8099 Cl    412 CCL4  -0.0812 
2218 C       -4.0865    12.9616     7.2271 C.3   412 CCL4   0.3246 
2219 CL      -5.0156    11.4617     7.4704 Cl    412 CCL4  -0.0812 
2220 CL      -4.2097    13.9977     8.6732 Cl    412 CCL4  -0.0812 
2221 CL      -2.3826    12.5568     6.9256 Cl    412 CCL4  -0.0812 
2222 CL      -0.0522     8.1795     9.9955 Cl    413 CCL4  -0.0812 
2223 C       -1.7031     8.7345    10.3619 C.3   413 CCL4   0.3246 
2224 CL      -2.0418    10.2510     9.4996 Cl    413 CCL4  -0.0812 
2225 CL      -1.8803     8.9724    12.1183 Cl    413 CCL4  -0.0812 
2226 CL      -2.8740     7.5154     9.8031 Cl    413 CCL4  -0.0812 
2227 CL      -1.7310     6.7309    21.3742 Cl    414 CCL4  -0.0812 
2228 C       -1.7196     5.6020    19.9968 C.3   414 CCL4   0.3246 
2229 CL      -3.3824     5.2665    19.4676 Cl    414 CCL4  -0.0812 
2230 CL      -0.9403     4.0815    20.4904 Cl    414 CCL4  -0.0812 
2231 CL      -0.8117     6.3197    18.6511 Cl    414 CCL4  -0.0812 
2232 CL       6.5719    11.1208    17.6268 Cl    415 CCL4  -0.0812 
2233 C        6.4836    11.7476    19.2861 C.3   415 CCL4   0.3246 
2234 CL       6.9695    13.4597    19.2990 Cl    415 CCL4  -0.0812 
2235 CL       7.5796    10.8018    20.3246 Cl    415 CCL4  -0.0812 
2236 CL       4.7990    11.6180    19.8419 Cl    415 CCL4  -0.0812 
2237 CL       3.3203    14.0027    17.3003 Cl    416 CCL4  -0.0812 
2238 C        1.6313    13.9866    17.8560 C.3   416 CCL4   0.3246 
2239 CL       1.5399    14.5576    19.5366 Cl    416 CCL4  -0.0812 
2240 CL       1.0118    12.3204    17.7509 Cl    416 CCL4  -0.0812 
2241 CL       0.6565    15.0575    16.8229 Cl    416 CCL4  -0.0812 
2242 CL       7.7220     5.7309    15.1322 Cl    417 CCL4  -0.0812 
2243 C        7.1932     6.0660    16.8003 C.3   417 CCL4   0.3246 
2244 CL       6.0206     7.4017    16.7986 Cl    417 CCL4  -0.0812 
2245 CL       8.5985     6.4953    17.8088 Cl    417 CCL4  -0.0812 
2246 CL       6.4098     4.6106    17.4588 Cl    417 CCL4  -0.0812 
2247 CL      -1.1518     8.8419    16.3883 Cl    418 CCL4  -0.0812 
2248 C       -2.4960     9.4780    17.3656 C.3   418 CCL4   0.3246 
2249 CL      -3.1824    10.8896    16.5386 Cl    418 CCL4  -0.0812 
2250 CL      -1.8862     9.9591    18.9691 Cl    418 CCL4  -0.0812 
2251 CL      -3.7713     8.2506    17.5624 Cl    418 CCL4  -0.0812 
2252 CL       4.3343    17.4241    12.8290 Cl    419 CCL4  -0.0812 
2253 C        2.7159    16.6863    12.7291 C.3   419 CCL4   0.3246 
2254 CL       2.3466    16.3013    11.0361 Cl    419 CCL4  -0.0812 
2255 CL       1.4978    17.8088    13.3854 Cl    419 CCL4  -0.0812 
2256 CL       2.6915    15.1936    13.6871 Cl    419 CCL4  -0.0812 
2257 CL      -1.3952    15.6032     5.1478 Cl    420 CCL4  -0.0812 
2258 C       -1.8109    17.0544     4.2015 C.3   420 CCL4   0.3246 
2259 CL      -1.2220    18.4999     5.0626 Cl    420 CCL4  -0.0812 
2260 CL      -3.5796    17.1497     4.0161 Cl    420 CCL4  -0.0812 
2261 CL      -1.0431    16.9676     2.5955 Cl    420 CCL4  -0.0812 
2262 CL      -1.2576    17.4056    11.0814 Cl    421 CCL4  -0.0812 
2263 C       -1.2322    18.1346     9.4593 C.3   421 CCL4   0.3246 
2264 CL      -2.4664    17.3474     8.4478 Cl    421 CCL4  -0.0812 
2265 CL       0.3608    17.8956     8.7055 Cl    421 CCL4  -0.0812 
2266 CL      -1.5801    19.8795     9.5784 Cl    421 CCL4  -0.0812 
2267 CL      -8.3740    18.8066     6.7796 Cl    422 CCL4  -0.0812 
2268 C       -6.8371    18.3739     5.9907 C.3   422 CCL4   0.3246 
2269 CL      -7.1675    17.8186     4.3345 Cl    422 CCL4  -0.0812 
2270 CL      -6.0451    17.0712     6.9189 Cl    422 CCL4  -0.0812 
2271 CL      -5.7848    19.8060     5.9431 Cl    422 CCL4  -0.0812 
2272 CL       5.3700    15.8610     5.3893 Cl    423 CCL4  -0.0812 
2273 C        3.7672    15.0988     5.2559 C.3   423 CCL4   0.3246 
2274 CL       3.9090    13.3400     5.4838 Cl    423 CCL4  -0.0812 
2275 CL       3.1063    15.4270     3.6386 Cl    423 CCL4  -0.0812 
2276 CL       2.6753    15.7859     6.4820 Cl    423 CCL4  -0.0812 
2277 CL       5.2992    19.1952    19.0089 Cl    424 CCL4  -0.0812 
2278 C        5.3577    17.5552    18.3240 C.3   424 CCL4   0.3246 
2279 CL       4.1964    17.4408    16.9814 Cl    424 CCL4  -0.0812 
2280 CL       4.9270    16.3794    19.5839 Cl    424 CCL4  -0.0812 
2281 CL       6.9932    17.2055    17.7205 Cl    424 CCL4  -0.0812 
2282 CL      -4.1159    15.0667    20.2186 Cl    425 CCL4  -0.0812 
2283 C       -3.8638    14.3923    18.5917 C.3   425 CCL4   0.3246 
2284 CL      -5.1242    13.1783    18.2679 Cl    425 CCL4  -0.0812 
2285 CL      -2.2610    13.6236    18.5286 Cl    425 CCL4  -0.0812 
2286 CL      -3.9600    15.7010    17.3912 Cl    425 CCL4  -0.0812 
2287 CL      12.0362    15.8828     9.5189 Cl    426 CCL4  -0.0812 
2288 C       11.8056    17.5825     9.9899 C.3   426 CCL4   0.3246 
2289 CL      10.7752    18.4024     8.7918 Cl    426 CCL4  -0.0812 
2290 CL      13.3896    18.3931    10.0571 Cl    426 CCL4  -0.0812 
2291 CL      11.0293    17.6503    11.5923 Cl    426 CCL4  -0.0812 
2292 CL      10.6315    10.1678    13.1381 Cl    427 CCL4  -0.0812 
2293 C        9.7131     8.8056    13.8158 C.3   427 CCL4   0.3246 
2294 CL       9.1021     9.2398    15.4293 Cl    427 CCL4  -0.0812 
2295 CL      10.7912     7.3911    13.9426 Cl    427 CCL4  -0.0812 
2296 CL       8.3370     8.4241    12.7543 Cl    427 CCL4  -0.0812 
2297 CL      14.7207     6.7834    12.9495 Cl    428 CCL4  -0.0812 
2298 C       15.0681     8.5072    12.7011 C.3   428 CCL4   0.3246 
2299 CL      15.0898     9.2992    14.2937 Cl    428 CCL4  -0.0812 
2300 CL      13.7839     9.2198    11.6989 Cl    428 CCL4  -0.0812 
2301 CL      16.6361     8.7082    11.8875 Cl    428 CCL4  -0.0812 
2302 CL      15.3790    15.2030    14.1818 Cl    429 CCL4  -0.0812 
2303 C       14.6080    14.2338    12.9079 C.3   429 CCL4   0.3246 
2304 CL      12.8369    14.4091    12.9984 Cl    429 CCL4  -0.0812 
2305 CL      15.0646    12.5310    13.1251 Cl    429 CCL4  -0.0812 
2306 CL      15.1774    14.7926    11.3178 Cl    429 CCL4  -0.0812 
2307 CL       6.5210     3.1918     5.3672 Cl    430 CCL4  -0.0812 
2308 C        7.9028     4.0961     6.0217 C.3   430 CCL4   0.3246 
2309 CL       9.3120     3.0147     6.1479 Cl    430 CCL4  -0.0812 
2310 CL       7.4794     4.7327     7.6291 Cl    430 CCL4  -0.0812 
2311 CL       8.2693     5.4669     4.9463 Cl    430 CCL4  -0.0812 
2312 CL      10.9240     8.6029     9.2442 Cl    431 CCL4  -0.0812 
2313 C       11.9797     7.3639     8.5190 C.3   431 CCL4   0.3246 
2314 CL      11.0213     6.3348     7.4242 Cl    431 CCL4  -0.0812 
2315 CL      12.6964     6.3727     9.8163 Cl    431 CCL4  -0.0812 
2316 CL      13.2787     8.1615     7.5955 Cl    431 CCL4  -0.0812 
2317 CL       9.8744     3.0503     9.6236 Cl    432 CCL4  -0.0812 
2318 C        9.7525     3.9470    11.1552 C.3   432 CCL4   0.3246 
2319 CL      11.2913     3.8155    12.0414 Cl    432 CCL4  -0.0812 
2320 CL       8.4504     3.2534    12.1481 Cl    432 CCL4  -0.0812 
2321 CL       9.3929     5.6574    10.8357 Cl    432 CCL4  -0.0812 
2322 CL       9.9925    17.7698     5.2201 Cl    433 CCL4  -0.0812 
2323 C        9.9577    16.0031     5.4147 C.3   433 CCL4   0.3246 
2324 CL      11.6068    15.3541     5.2296 Cl    433 CCL4  -0.0812 
2325 CL       8.9059    15.2991     4.1708 Cl    433 CCL4  -0.0812 
2326 CL       9.3294    15.5760     7.0216 Cl    433 CCL4  -0.0812 
2327 CL      14.3886    11.1979    17.9735 Cl    434 CCL4  -0.0812 
2328 C       12.7541    11.0873    17.2757 C.3   434 CCL4   0.3246 
2329 CL      12.3984     9.3934    16.8771 Cl    434 CCL4  -0.0812 
2330 CL      12.6778    12.0667    15.7927 Cl    434 CCL4  -0.0812 
2331 CL      11.5700    11.6850    18.4648 Cl    434 CCL4  -0.0812 
2332 CL       9.1987    13.2110    16.3635 Cl    435 CCL4  -0.0812 
2333 C        8.0625    13.6172    15.0560 C.3   435 CCL4   0.3246 
2334 CL       7.6957    12.1642    14.0992 Cl    435 CCL4  -0.0812 
2335 CL       8.7997    14.8484    14.0059 Cl    435 CCL4  -0.0812 
2336 CL       6.5562    14.2592    15.7490 Cl    435 CCL4  -0.0812 
2337 CL      12.5824     5.9902    18.1554 Cl    436 CCL4  -0.0812 
2338 C       14.3602     6.0341    18.3123 C.3   436 CCL4   0.3246 
2339 CL      15.1194     5.7954    16.7139 Cl    436 CCL4  -0.0812 
2340 CL      14.8735     4.7351    19.4188 Cl    436 CCL4  -0.0812 
2341 CL      14.8735     7.6038    18.9727 Cl    436 CCL4  -0.0812 
2342 CL       7.2140    18.1235    10.4027 Cl    437 CCL4  -0.0812 
2343 C        6.1213    18.1671     8.9992 C.3   437 CCL4   0.3246 
2344 CL       5.0633    19.5896     9.1166 Cl    437 CCL4  -0.0812 
2345 CL       5.1335    16.6933     8.9663 Cl    437 CCL4  -0.0812 
2346 CL       7.0824    18.2776     7.5093 Cl    437 CCL4  -0.0812 
2347 CL      13.3397    18.4622    14.3751 Cl    438 CCL4  -0.0812 
2348 C       12.6889    18.0831    15.9874 C.3   438 CCL4   0.3246 
2349 CL      13.5742    19.0105    17.2260 Cl    438 CCL4  -0.0812 
2350 CL      12.8528    16.3375    16.3018 Cl    438 CCL4  -0.0812 
2351 CL      10.9640    18.5216    16.0357 Cl    438 CCL4  -0.0812 
@<TRIPOS>BOND
   1    1    2  1   
   2    1    5  ar  
   3    1   13  ar  
   4    2    3  1   
   5    2    4  1   
   6    2   21  1   
   7    4  148  1   
   8    5    6  1   
   9    5    7  ar  
  10    7    8  1   
  11    7    9  ar  
  12    9   10  1   
  13    9   11  ar  
  14   11   12  1   
  15   11   13  ar  
  16   13   14  1   
  17   15   16  1   
  18   15   17  ar  
  19   15   24  ar  
  20   16   32  1   
  21   17   18  1   
  22   17   19  ar  
  23   19   20  1   
  24   19   21  ar  
  25   21   22  ar  
  26   22   23  1   
  27   22   24  ar  
  28   24   25  1   
  29   26   27  1   
  30   26   28  ar  
  31   26   35  ar  
  32   27   45  1   
  33   28   29  1   
  34   28   30  ar  
  35   30   31  1   
  36   30   32  ar  
  37   32   33  ar  
  38   33   34  1   
  39   33   35  ar  
  40   35   36  1   
  41   37   38  1   
  42   37   41  ar  
  43   37   48  ar  
  44   38   39  1   
  45   38   40  1   
  46   38   56  1   
  47   40   95  1   
  48   41   42  1   
  49   41   43  ar  
  50   43   44  1   
  51   43   45  ar  
  52   45   46  ar  
  53   46   47  1   
  54   46   48  ar  
  55   48   49  1   
  56   50   51  1   
  57   50   52  ar  
  58   50   59  ar  
  59   52   53  1   
  60   52   54  ar  
  61   54   55  1   
  62   54   56  ar  
  63   56   57  ar  
  64   57   58  1   
  65   57   59  ar  
  66   59   60  1   
  67   61   62  1   
  68   61  111  2   
  69   61  112  1   
  70   62   63  1   
  71   62   64  1   
  72   62   65  1   
  73   65   66  1   
  74   65   67  1   
  75   65  110  1   
  76   67   68  1   
  77   67   69  1   
  78   67   70  1   
  79   70   71  1   
  80   70  108  1   
  81   70  109  1   
  82   71   72  1   
  83   71   73  1   
  84   71  107  1   
  85   73   74  1   
  86   73   75  1   
  87   73   76  1   
  88   76   77  1   
  89   76   78  1   
  90   76  106  1   
  91   78   79  1   
  92   78   80  2   
  93   80   81  1   
  94   80   82  1   
  95   82   83  1   
  96   82  104  1   
  97   82  105  1   
  98   83   84  1   
  99   83   85  1   
 100   83  103  1   
 101   85   86  1   
 102   85   87  1   
 103   85   88  1   
 104   88   89  1   
 105   88   90  1   
 106   88  102  1   
 107   90   91  1   
 108   90   92  1   
 109   90   93  1   
 110   93   94  1   
 111   93   95  1   
 112   93  101  1   
 113   95   96  1   
 114   95   97  1   
 115   97   98  1   
 116   97   99  1   
 117   97  100  1   
 118  112  113  1   
 119  114  115  1   
 120  114  164  2   
 121  114  165  1   
 122  115  116  1   
 123  115  117  1   
 124  115  118  1   
 125  118  119  1   
 126  118  120  1   
 127  118  163  1   
 128  120  121  1   
 129  120  122  1   
 130  120  123  1   
 131  123  124  1   
 132  123  161  1   
 133  123  162  1   
 134  124  125  1   
 135  124  126  1   
 136  124  160  1   
 137  126  127  1   
 138  126  128  1   
 139  126  129  1   
 140  129  130  1   
 141  129  131  1   
 142  129  159  1   
 143  131  132  1   
 144  131  133  2   
 145  133  134  1   
 146  133  135  1   
 147  135  136  1   
 148  135  157  1   
 149  135  158  1   
 150  136  137  1   
 151  136  138  1   
 152  136  156  1   
 153  138  139  1   
 154  138  140  1   
 155  138  141  1   
 156  141  142  1   
 157  141  143  1   
 158  141  155  1   
 159  143  144  1   
 160  143  145  1   
 161  143  146  1   
 162  146  147  1   
 163  146  148  1   
 164  146  154  1   
 165  148  149  1   
 166  148  150  1   
 167  150  151  1   
 168  150  152  1   
 169  150  153  1   
 170  165  166  1   
 171  167  168  1   
 172  168  169  1   
 173  168  170  1   
 174  168  171  1   
 175  172  173  1   
 176  173  174  1   
 177  173  175  1   
 178  173  176  1   
 179  177  178  1   
 180  178  179  1   
 181  178  180  1   
 182  178  181  1   
 183  182  183  1   
 184  183  184  1   
 185  183  185  1   
 186  183  186  1   
 187  187  188  1   
 188  188  189  1   
 189  188  190  1   
 190  188  191  1   
 191  192  193  1   
 192  193  194  1   
 193  193  195  1   
 194  193  196  1   
 195  197  198  1   
 196  198  199  1   
 197  198  200  1   
 198  198  201  1   
 199  202  203  1   
 200  203  204  1   
 201  203  205  1   
 202  203  206  1   
 203  207  208  1   
 204  208  209  1   
 205  208  210  1   
 206  208  211  1   
 207  212  213  1   
 208  213  214  1   
 209  213  215  1   
 210  213  216  1   
 211  217  218  1   
 212  218  219  1   
 213  218  220  1   
 214  218  221  1   
 215  222  223  1   
 216  223  224  1   
 217  223  225  1   
 218  223  226  1   
 219  227  228  1   
 220  228  229  1   
 221  228  230  1   
 222  228  231  1   
 223  232  233  1   
 224  233  234  1   
 225  233  235  1   
 226  233  236  1   
 227  237  238  1   
 228  238  239  1   
 229  238  240  1   
 230  238  241  1   
 231  242  243  1   
 232  243  244  1   
 233  243  245  1   
 234  243  246  1   
 235  247  248  1   
 236  248  249  1   
 237  248  250  1   
 238  248  251  1   
 239  252  253  1   
 240  253  254  1   
 241  253  255  1   
 242  253  256  1   
 243  257  258  1   
 244  258  259  1   
 245  258  260  1   
 246  258  261  1   
 247  262  263  1   
 248  263  264  1   
 249  263  265  1   
 250  263  266  1   
 251  267  268  1   
 252  268  269  1   
 253  268  270  1   
 254  268  271  1   
 255  272  273  1   
 256  273  274  1   
 257  273  275  1   
 258  273  276  1   
 259  277  278  1   
 260  278  279  1   
 261  278  280  1   
 262  278  281  1   
 263  282  283  1   
 264  283  284  1   
 265  283  285  1   
 266  283  286  1   
 267  287  288  1   
 268  288  289  1   
 269  288  290  1   
 270  288  291  1   
 271  292  293  1   
 272  293  294  1   
 273  293  295  1   
 274  293  296  1   
 275  297  298  1   
 276  298  299  1   
 277  298  300  1   
 278  298  301  1   
 279  302  303  1   
 280  303  304  1   
 281  303  305  1   
 282  303  306  1   
 283  307  308  1   
 284  308  309  1   
 285  308  310  1   
 286  308  311  1   
 287  312  313  1   
 288  313  314  1   
 289  313  315  1   
 290  313  316  1   
 291  317  318  1   
 292  318  319  1   
 293  318  320  1   
 294  318  321  1   
 295  322  323  1   
 296  323  324  1   
 297  323  325  1   
 298  323  326  1   
 299  327  328  1   
 300  328  329  1   
 301  328  330  1   
 302  328  331  1   
 303  332  333  1   
 304  333  334  1   
 305  333  335  1   
 306  333  336  1   
 307  337  338  1   
 308  338  339  1   
 309  338  340  1   
 310  338  341  1   
 311  342  343  1   
 312  343  344  1   
 313  343  345  1   
 314  343  346  1   
 315  347  348  1   
 316  348  349  1   
 317  348  350  1   
 318  348  351  1   
 319  352  353  1   
 320  353  354  1   
 321  353  355  1   
 322  353  356  1   
 323  357  358  1   
 324  358  359  1   
 325  358  360  1   
 326  358  361  1   
 327  362  363  1   
 328  363  364  1   
 329  363  365  1   
 330  363  366  1   
 331  367  368  1   
 332  368  369  1   
 333  368  370  1   
 334  368  371  1   
 335  372  373  1   
 336  373  374  1   
 337  373  375  1   
 338  373  376  1   
 339  377  378  1   
 340  378  379  1   
 341  378  380  1   
 342  378  381  1   
 343  382  383  1   
 344  383  384  1   
 345  383  385  1   
 346  383  386  1   
 347  387  388  1   
 348  388  389  1   
 349  388  390  1   
 350  388  391  1   
 351  392  393  1   
 352  393  394  1   
 353  393  395  1   
 354  393  396  1   
 355  397  398  1   
 356  398  399  1   
 357  398  400  1   
 358  398  401  1   
 359  402  403  1   
 360  403  404  1   
 361  403  405  1   
 362  403  406  1   
 363  407  408  1   
 364  408  409  1   
 365  408  410  1   
 366  408  411  1   
 367  412  413  1   
 368  413  414  1   
 369  413  415  1   
 370  413  416  1   
 371  417  418  1   
 372  418  419  1   
 373  418  420  1   
 374  418  421  1   
 375  422  423  1   
 376  423  424  1   
 377  423  425  1   
 378  423  426  1   
 379  427  428  1   
 380  428  429  1   
 381  428  430  1   
 382  428  431  1   
 383  432  433  1   
 384  433  434  1   
 385  433  435  1   
 386  433  436  1   
 387  437  438  1   
 388  438  439  1   
 389  438  440  1   
 390  438  441  1   
 391  442  443  1   
 392  443  444  1   
 393  443  445  1   
 394  443  446  1   
 395  447  448  1   
 396  448  449  1   
 397  448  450  1   
 398  448  451  1   
 399  452  453  1   
 400  453  454  1   
 401  453  455  1   
 402  453  456  1   
 403  457  458  1   
 404  458  459  1   
 405  458  460  1   
 406  458  461  1   
 407  462  463  1   
 408  463  464  1   
 409  463  465  1   
 410  463  466  1   
 411  467  468  1   
 412  468  469  1   
 413  468  470  1   
 414  468  471  1   
 415  472  473  1   
 416  473  474  1   
 417  473  475  1   
 418  473  476  1   
 419  477  478  1   
 420  478  479  1   
 421  478  480  1   
 422  478  481  1   
 423  482  483  1   
 424  483  484  1   
 425  483  485  1   
 426  483  486  1   
 427  487  488  1   
 428  488  489  1   
 429  488  490  1   
 430  488  491  1   
 431  492  493  1   
 432  493  494  1   
 433  493  495  1   
 434  493  496  1   
 435  497  498  1   
 436  498  499  1   
 437  498  500  1   
 438  498  501  1   
 439  502  503  1   
 440  503  504  1   
 441  503  505  1   
 442  503  506  1   
 443  507  508  1   
 444  508  509  1   
 445  508  510  1   
 446  508  511  1   
 447  512  513  1   
 448  513  514  1   
 449  513  515  1   
 450  513  516  1   
 451  517  518  1   
 452  518  519  1   
 453  518  520  1   
 454  518  521  1   
 455  522  523  1   
 456  523  524  1   
 457  523  525  1   
 458  523  526  1   
 459  527  528  1   
 460  528  529  1   
 461  528  530  1   
 462  528  531  1   
 463  532  533  1   
 464  533  534  1   
 465  533  535  1   
 466  533  536  1   
 467  537  538  1   
 468  538  539  1   
 469  538  540  1   
 470  538  541  1   
 471  542  543  1   
 472  543  544  1   
 473  543  545  1   
 474  543  546  1   
 475  547  548  1   
 476  548  549  1   
 477  548  550  1   
 478  548  551  1   
 479  552  553  1   
 480  553  554  1   
 481  553  555  1   
 482  553  556  1   
 483  557  558  1   
 484  558  559  1   
 485  558  560  1   
 486  558  561  1   
 487  562  563  1   
 488  563  564  1   
 489  563  565  1   
 490  563  566  1   
 491  567  568  1   
 492  568  569  1   
 493  568  570  1   
 494  568  571  1   
 495  572  573  1   
 496  573  574  1   
 497  573  575  1   
 498  573  576  1   
 499  577  578  1   
 500  578  579  1   
 501  578  580  1   
 502  578  581  1   
 503  582  583  1   
 504  583  584  1   
 505  583  585  1   
 506  583  586  1   
 507  587  588  1   
 508  588  589  1   
 509  588  590  1   
 510  588  591  1   
 511  592  593  1   
 512  593  594  1   
 513  593  595  1   
 514  593  596  1   
 515  597  598  1   
 516  598  599  1   
 517  598  600  1   
 518  598  601  1   
 519  602  603  1   
 520  603  604  1   
 521  603  605  1   
 522  603  606  1   
 523  607  608  1   
 524  608  609  1   
 525  608  610  1   
 526  608  611  1   
 527  612  613  1   
 528  613  614  1   
 529  613  615  1   
 530  613  616  1   
 531  617  618  1   
 532  618  619  1   
 533  618  620  1   
 534  618  621  1   
 535  622  623  1   
 536  623  624  1   
 537  623  625  1   
 538  623  626  1   
 539  627  628  1   
 540  628  629  1   
 541  628  630  1   
 542  628  631  1   
 543  632  633  1   
 544  633  634  1   
 545  633  635  1   
 546  633  636  1   
 547  637  638  1   
 548  638  639  1   
 549  638  640  1   
 550  638  641  1   
 551  642  643  1   
 552  643  644  1   
 553  643  645  1   
 554  643  646  1   
 555  647  648  1   
 556  648  649  1   
 557  648  650  1   
 558  648  651  1   
 559  652  653  1   
 560  653  654  1   
 561  653  655  1   
 562  653  656  1   
 563  657  658  1   
 564  658  659  1   
 565  658  660  1   
 566  658  661  1   
 567  662  663  1   
 568  663  664  1   
 569  663  665  1   
 570  663  666  1   
 571  667  668  1   
 572  668  669  1   
 573  668  670  1   
 574  668  671  1   
 575  672  673  1   
 576  673  674  1   
 577  673  675  1   
 578  673  676  1   
 579  677  678  1   
 580  678  679  1   
 581  678  680  1   
 582  678  681  1   
 583  682  683  1   
 584  683  684  1   
 585  683  685  1   
 586  683  686  1   
 587  687  688  1   
 588  688  689  1   
 589  688  690  1   
 590  688  691  1   
 591  692  693  1   
 592  693  694  1   
 593  693  695  1   
 594  693  696  1   
 595  697  698  1   
 596  698  699  1   
 597  698  700  1   
 598  698  701  1   
 599  702  703  1   
 600  703  704  1   
 601  703  705  1   
 602  703  706  1   
 603  707  708  1   
 604  708  709  1   
 605  708  710  1   
 606  708  711  1   
 607  712  713  1   
 608  713  714  1   
 609  713  715  1   
 610  713  716  1   
 611  717  718  1   
 612  718  719  1   
 613  718  720  1   
 614  718  721  1   
 615  722  723  1   
 616  723  724  1   
 617  723  725  1   
 618  723  726  1   
 619  727  728  1   
 620  728  729  1   
 621  728  730  1   
 622  728  731  1   
 623  732  733  1   
 624  733  734  1   
 625  733  735  1   
 626  733  736  1   
 627  737  738  1   
 628  738  739  1   
 629  738  740  1   
 630  738  741  1   
 631  742  743  1   
 632  743  744  1   
 633  743  745  1   
 634  743  746  1   
 635  747  748  1   
 636  748  749  1   
 637  748  750  1   
 638  748  751  1   
 639  752  753  1   
 640  753  754  1   
 641  753  755  1   
 642  753  756  1   
 643  757  758  1   
 644  758  759  1   
 645  758  760  1   
 646  758  761  1   
 647  762  763  1   
 648  763  764  1   
 649  763  765  1   
 650  763  766  1   
 651  767  768  1   
 652  768  769  1   
 653  768  770  1   
 654  768  771  1   
 655  772  773  1   
 656  773  774  1   
 657  773  775  1   
 658  773  776  1   
 659  777  778  1   
 660  778  779  1   
 661  778  780  1   
 662  778  781  1   
 663  782  783  1   
 664  783  784  1   
 665  783  785  1   
 666  783  786  1   
 667  787  788  1   
 668  788  789  1   
 669  788  790  1   
 670  788  791  1   
 671  792  793  1   
 672  793  794  1   
 673  793  795  1   
 674  793  796  1   
 675  797  798  1   
 676  798  799  1   
 677  798  800  1   
 678  798  801  1   
 679  802  803  1   
 680  803  804  1   
 681  803  805  1   
 682  803  806  1   
 683  807  808  1   
 684  808  809  1   
 685  808  810  1   
 686  808  811  1   
 687  812  813  1   
 688  813  814  1   
 689  813  815  1   
 690  813  816  1   
 691  817  818  1   
 692  818  819  1   
 693  818  820  1   
 694  818  821  1   
 695  822  823  1   
 696  823  824  1   
 697  823  825  1   
 698  823  826  1   
 699  827  828  1   
 700  828  829  1   
 701  828  830  1   
 702  828  831  1   
 703  832  833  1   
 704  833  834  1   
 705  833  835  1   
 706  833  836  1   
 707  837  838  1   
 708  838  839  1   
 709  838  840  1   
 710  838  841  1   
 711  842  843  1   
 712  843  844  1   
 713  843  845  1   
 714  843  846  1   
 715  847  848  1   
 716  848  849  1   
 717  848  850  1   
 718  848  851  1   
 719  852  853  1   
 720  853  854  1   
 721  853  855  1   
 722  853  856  1   
 723  857  858  1   
 724  858  859  1   
 725  858  860  1   
 726  858  861  1   
 727  862  863  1   
 728  863  864  1   
 729  863  865  1   
 730  863  866  1   
 731  867  868  1   
 732  868  869  1   
 733  868  870  1   
 734  868  871  1   
 735  872  873  1   
 736  873  874  1   
 737  873  875  1   
 738  873  876  1   
 739  877  878  1   
 740  878  879  1   
 741  878  880  1   
 742  878  881  1   
 743  882  883  1   
 744  883  884  1   
 745  883  885  1   
 746  883  886  1   
 747  887  888  1   
 748  888  889  1   
 749  888  890  1   
 750  888  891  1   
 751  892  893  1   
 752  893  894  1   
 753  893  895  1   
 754  893  896  1   
 755  897  898  1   
 756  898  899  1   
 757  898  900  1   
 758  898  901  1   
 759  902  903  1   
 760  903  904  1   
 761  903  905  1   
 762  903  906  1   
 763  907  908  1   
 764  908  909  1   
 765  908  910  1   
 766  908  911  1   
 767  912  913  1   
 768  913  914  1   
 769  913  915  1   
 770  913  916  1   
 771  917  918  1   
 772  918  919  1   
 773  918  920  1   
 774  918  921  1   
 775  922  923  1   
 776  923  924  1   
 777  923  925  1   
 778  923  926  1   
 779  927  928  1   
 780  928  929  1   
 781  928  930  1   
 782  928  931  1   
 783  932  933  1   
 784  933  934  1   
 785  933  935  1   
 786  933  936  1   
 787  937  938  1   
 788  938  939  1   
 789  938  940  1   
 790  938  941  1   
 791  942  943  1   
 792  943  944  1   
 793  943  945  1   
 794  943  946  1   
 795  947  948  1   
 796  948  949  1   
 797  948  950  1   
 798  948  951  1   
 799  952  953  1   
 800  953  954  1   
 801  953  955  1   
 802  953  956  1   
 803  957  958  1   
 804  958  959  1   
 805  958  960  1   
 806  958  961  1   
 807  962  963  1   
 808  963  964  1   
 809  963  965  1   
 810  963  966  1   
 811  967  968  1   
 812  968  969  1   
 813  968  970  1   
 814  968  971  1   
 815  972  973  1   
 816  973  974  1   
 817  973  975  1   
 818  973  976  1   
 819  977  978  1   
 820  978  979  1   
 821  978  980  1   
 822  978  981  1   
 823  982  983  1   
 824  983  984  1   
 825  983  985  1   
 826  983  986  1   
 827  987  988  1   
 828  988  989  1   
 829  988  990  1   
 830  988  991  1   
 831  992  993  1   
 832  993  994  1   
 833  993  995  1   
 834  993  996  1   
 835  997  998  1   
 836  998  999  1   
 837  998 1000  1   
 838  998 1001  1   
 839 1002 1003  1   
 840 1003 1004  1   
 841 1003 1005  1   
 842 1003 1006  1   
 843 1007 1008  1   
 844 1008 1009  1   
 845 1008 1010  1   
 846 1008 1011  1   
 847 1012 1013  1   
 848 1013 1014  1   
 849 1013 1015  1   
 850 1013 1016  1   
 851 1017 1018  1   
 852 1018 1019  1   
 853 1018 1020  1   
 854 1018 1021  1   
 855 1022 1023  1   
 856 1023 1024  1   
 857 1023 1025  1   
 858 1023 1026  1   
 859 1027 1028  1   
 860 1028 1029  1   
 861 1028 1030  1   
 862 1028 1031  1   
 863 1032 1033  1   
 864 1033 1034  1   
 865 1033 1035  1   
 866 1033 1036  1   
 867 1037 1038  1   
 868 1038 1039  1   
 869 1038 1040  1   
 870 1038 1041  1   
 871 1042 1043  1   
 872 1043 1044  1   
 873 1043 1045  1   
 874 1043 1046  1   
 875 1047 1048  1   
 876 1048 1049  1   
 877 1048 1050  1   
 878 1048 1051  1   
 879 1052 1053  1   
 880 1053 1054  1   
 881 1053 1055  1   
 882 1053 1056  1   
 883 1057 1058  1   
 884 1058 1059  1   
 885 1058 1060  1   
 886 1058 1061  1   
 887 1062 1063  1   
 888 1063 1064  1   
 889 1063 1065  1   
 890 1063 1066  1   
 891 1067 1068  1   
 892 1068 1069  1   
 893 1068 1070  1   
 894 1068 1071  1   
 895 1072 1073  1   
 896 1073 1074  1   
 897 1073 1075  1   
 898 1073 1076  1   
 899 1077 1078  1   
 900 1078 1079  1   
 901 1078 1080  1   
 902 1078 1081  1   
 903 1082 1083  1   
 904 1083 1084  1   
 905 1083 1085  1   
 906 1083 1086  1   
 907 1087 1088  1   
 908 1088 1089  1   
 909 1088 1090  1   
 910 1088 1091  1   
 911 1092 1093  1   
 912 1093 1094  1   
 913 1093 1095  1   
 914 1093 1096  1   
 915 1097 1098  1   
 916 1098 1099  1   
 917 1098 1100  1   
 918 1098 1101  1   
 919 1102 1103  1   
 920 1103 1104  1   
 921 1103 1105  1   
 922 1103 1106  1   
 923 1107 1108  1   
 924 1108 1109  1   
 925 1108 1110  1   
 926 1108 1111  1   
 927 1112 1113  1   
 928 1113 1114  1   
 929 1113 1115  1   
 930 1113 1116  1   
 931 1117 1118  1   
 932 1118 1119  1   
 933 1118 1120  1   
 934 1118 1121  1   
 935 1122 1123  1   
 936 1123 1124  1   
 937 1123 1125  1   
 938 1123 1126  1   
 939 1127 1128  1   
 940 1128 1129  1   
 941 1128 1130  1   
 942 1128 1131  1   
 943 1132 1133  1   
 944 1133 1134  1   
 945 1133 1135  1   
 946 1133 1136  1   
 947 1137 1138  1   
 948 1138 1139  1   
 949 1138 1140  1   
 950 1138 1141  1   
 951 1142 1143  1   
 952 1143 1144  1   
 953 1143 1145  1   
 954 1143 1146  1   
 955 1147 1148  1   
 956 1148 1149  1   
 957 1148 1150  1   
 958 1148 1151  1   
 959 1152 1153  1   
 960 1153 1154  1   
 961 1153 1155  1   
 962 1153 1156  1   
 963 1157 1158  1   
 964 1158 1159  1   
 965 1158 1160  1   
 966 1158 1161  1   
 967 1162 1163  1   
 968 1163 1164  1   
 969 1163 1165  1   
 970 1163 1166  1   
 971 1167 1168  1   
 972 1168 1169  1   
 973 1168 1170  1   
 974 1168 1171  1   
 975 1172 1173  1   
 976 1173 1174  1   
 977 1173 1175  1   
 978 1173 1176  1   
 979 1177 1178  1   
 980 1178 1179  1   
 981 1178 1180  1   
 982 1178 1181  1   
 983 1182 1183  1   
 984 1183 1184  1   
 985 1183 1185  1   
 986 1183 1186  1   
 987 1187 1188  1   
 988 1188 1189  1   
 989 1188 1190  1   
 990 1188 1191  1   
 991 1192 1193  1   
 992 1193 1194  1   
 993 1193 1195  1   
 994 1193 1196  1   
 995 1197 1198  1   
 996 1198 1199  1   
 997 1198 1200  1   
 998 1198 1201  1   
 999 1202 1203  1   
1000 1203 1204  1   
1001 1203 1205  1   
1002 1203 1206  1   
1003 1207 1208  1   
1004 1208 1209  1   
1005 1208 1210  1   
1006 1208 1211  1   
1007 1212 1213  1   
1008 1213 1214  1   
1009 1213 1215  1   
1010 1213 1216  1   
1011 1217 1218  1   
1012 1218 1219  1   
1013 1218 1220  1   
1014 1218 1221  1   
1015 1222 1223  1   
1016 1223 1224  1   
1017 1223 1225  1   
1018 1223 1226  1   
1019 1227 1228  1   
1020 1228 1229  1   
1021 1228 1230  1   
1022 1228 1231  1   
1023 1232 1233  1   
1024 1233 1234  1   
1025 1233 1235  1   
1026 1233 1236  1   
1027 1237 1238  1   
1028 1238 1239  1   
1029 1238 1240  1   
1030 1238 1241  1   
1031 1242 1243  1   
1032 1243 1244  1   
1033 1243 1245  1   
1034 1243 1246  1   
1035 1247 1248  1   
1036 1248 1249  1   
1037 1248 1250  1   
1038 1248 1251  1   
1039 1252 1253  1   
1040 1253 1254  1   
1041 1253 1255  1   
1042 1253 1256  1   
1043 1257 1258  1   
1044 1258 1259  1   
1045 1258 1260  1   
1046 1258 1261  1   
1047 1262 1263  1   
1048 1263 1264  1   
1049 1263 1265  1   
1050 1263 1266  1   
1051 1267 1268  1   
1052 1268 1269  1   
1053 1268 1270  1   
1054 1268 1271  1   
1055 1272 1273  1   
1056 1273 1274  1   
1057 1273 1275  1   
1058 1273 1276  1   
1059 1277 1278  1   
1060 1278 1279  1   
1061 1278 1280  1   
1062 1278 1281  1   
1063 1282 1283  1   
1064 1283 1284  1   
1065 1283 1285  1   
1066 1283 1286  1   
1067 1287 1288  1   
1068 1288 1289  1   
1069 1288 1290  1   
1070 1288 1291  1   
1071 1292 1293  1   
1072 1293 1294  1   
1073 1293 1295  1   
1074 1293 1296  1   
1075 1297 1298  1   
1076 1298 1299  1   
1077 1298 1300  1   
1078 1298 1301  1   
1079 1302 1303  1   
1080 1303 1304  1   
1081 1303 1305  1   
1082 1303 1306  1   
1083 1307 1308  1   
1084 1308 1309  1   
1085 1308 1310  1   
1086 1308 1311  1   
1087 1312 1313  1   
1088 1313 1314  1   
1089 1313 1315  1   
1090 1313 1316  1   
1091 1317 1318  1   
1092 1318 1319  1   
1093 1318 1320  1   
1094 1318 1321  1   
1095 1322 1323  1   
1096 1323 1324  1   
1097 1323 1325  1   
1098 1323 1326  1   
1099 1327 1328  1   
1100 1328 1329  1   
1101 1328 1330  1   
1102 1328 1331  1   
1103 1332 1333  1   
1104 1333 1334  1   
1105 1333 1335  1   
1106 1333 1336  1   
1107 1337 1338  1   
1108 1338 1339  1   
1109 1338 1340  1   
1110 1338 1341  1   
1111 1342 1343  1   
1112 1343 1344  1   
1113 1343 1345  1   
1114 1343 1346  1   
1115 1347 1348  1   
1116 1348 1349  1   
1117 1348 1350  1   
1118 1348 1351  1   
1119 1352 1353  1   
1120 1353 1354  1   
1121 1353 1355  1   
1122 1353 1356  1   
1123 1357 1358  1   
1124 1358 1359  1   
1125 1358 1360  1   
1126 1358 1361  1   
1127 1362 1363  1   
1128 1363 1364  1   
1129 1363 1365  1   
1130 1363 1366  1   
1131 1367 1368  1   
1132 1368 1369  1   
1133 1368 1370  1   
1134 1368 1371  1   
1135 1372 1373  1   
1136 1373 1374  1   
1137 1373 1375  1   
1138 1373 1376  1   
1139 1377 1378  1   
1140 1378 1379  1   
1141 1378 1380  1   
1142 1378 1381  1   
1143 1382 1383  1   
1144 1383 1384  1   
1145 1383 1385  1   
1146 1383 1386  1   
1147 1387 1388  1   
1148 1388 1389  1   
1149 1388 1390  1   
1150 1388 1391  1   
1151 1392 1393  1   
1152 1393 1394  1   
1153 1393 1395  1   
1154 1393 1396  1   
1155 1397 1398  1   
1156 1398 1399  1   
1157 1398 1400  1   
1158 1398 1401  1   
1159 1402 1403  1   
1160 1403 1404  1   
1161 1403 1405  1   
1162 1403 1406  1   
1163 1407 1408  1   
1164 1408 1409  1   
1165 1408 1410  1   
1166 1408 1411  1   
1167 1412 1413  1   
1168 1413 1414  1   
1169 1413 1415  1   
1170 1413 1416  1   
1171 1417 1418  1   
1172 1418 1419  1   
1173 1418 1420  1   
1174 1418 1421  1   
1175 1422 1423  1   
1176 1423 1424  1   
1177 1423 1425  1   
1178 1423 1426  1   
1179 1427 1428  1   
1180 1428 1429  1   
1181 1428 1430  1   
1182 1428 1431  1   
1183 1432 1433  1   
1184 1433 1434  1   
1185 1433 1435  1   
1186 1433 1436  1   
1187 1437 1438  1   
1188 1438 1439  1   
1189 1438 1440  1   
1190 1438 1441  1   
1191 1442 1443  1   
1192 1443 1444  1   
1193 1443 1445  1   
1194 1443 1446  1   
1195 1447 1448  1   
1196 1448 1449  1   
1197 1448 1450  1   
1198 1448 1451  1   
1199 1452 1453  1   
1200 1453 1454  1   
1201 1453 1455  1   
1202 1453 1456  1   
1203 1457 1458  1   
1204 1458 1459  1   
1205 1458 1460  1   
1206 1458 1461  1   
1207 1462 1463  1   
1208 1463 1464  1   
1209 1463 1465  1   
1210 1463 1466  1   
1211 1467 1468  1   
1212 1468 1469  1   
1213 1468 1470  1   
1214 1468 1471  1   
1215 1472 1473  1   
1216 1473 1474  1   
1217 1473 1475  1   
1218 1473 1476  1   
1219 1477 1478  1   
1220 1478 1479  1   
1221 1478 1480  1   
1222 1478 1481  1   
1223 1482 1483  1   
1224 1483 1484  1   
1225 1483 1485  1   
1226 1483 1486  1   
1227 1487 1488  1   
1228 1488 1489  1   
1229 1488 1490  1   
1230 1488 1491  1   
1231 1492 1493  1   
1232 1493 1494  1   
1233 1493 1495  1   
1234 1493 1496  1   
1235 1497 1498  1   
1236 1498 1499  1   
1237 1498 1500  1   
1238 1498 1501  1   
1239 1502 1503  1   
1240 1503 1504  1   
1241 1503 1505  1   
1242 1503 1506  1   
1243 1507 1508  1   
1244 1508 1509  1   
1245 1508 1510  1   
1246 1508 1511  1   
1247 1512 1513  1   
1248 1513 1514  1   
1249 1513 1515  1   
1250 1513 1516  1   
1251 1517 1518  1   
1252 1518 1519  1   
1253 1518 1520  1   
1254 1518 1521  1   
1255 1522 1523  1   
1256 1523 1524  1   
1257 1523 1525  1   
1258 1523 1526  1   
1259 1527 1528  1   
1260 1528 1529  1   
1261 1528 1530  1   
1262 1528 1531  1   
1263 1532 1533  1   
1264 1533 1534  1   
1265 1533 1535  1   
1266 1533 1536  1   
1267 1537 1538  1   
1268 1538 1539  1   
1269 1538 1540  1   
1270 1538 1541  1   
1271 1542 1543  1   
1272 1543 1544  1   
1273 1543 1545  1   
1274 1543 1546  1   
1275 1547 1548  1   
1276 1548 1549  1   
1277 1548 1550  1   
1278 1548 1551  1   
1279 1552 1553  1   
1280 1553 1554  1   
1281 1553 1555  1   
1282 1553 1556  1   
1283 1557 1558  1   
1284 1558 1559  1   
1285 1558 1560  1   
1286 1558 1561  1   
1287 1562 1563  1   
1288 1563 1564  1   
1289 1563 1565  1   
1290 1563 1566  1   
1291 1567 1568  1   
1292 1568 1569  1   
1293 1568 1570  1   
1294 1568 1571  1   
1295 1572 1573  1   
1296 1573 1574  1   
1297 1573 1575  1   
1298 1573 1576  1   
1299 1577 1578  1   
1300 1578 1579  1   
1301 1578 1580  1   
1302 1578 1581  1   
1303 1582 1583  1   
1304 1583 1584  1   
1305 1583 1585  1   
1306 1583 1586  1   
1307 1587 1588  1   
1308 1588 1589  1   
1309 1588 1590  1   
1310 1588 1591  1   
1311 1592 1593  1   
1312 1593 1594  1   
1313 1593 1595  1   
1314 1593 1596  1   
1315 1597 1598  1   
1316 1598 1599  1   
1317 1598 1600  1   
1318 1598 1601  1   
1319 1602 1603  1   
1320 1603 1604  1   
1321 1603 1605  1   
1322 1603 1606  1   
1323 1607 1608  1   
1324 1608 1609  1   
1325 1608 1610  1   
1326 1608 1611  1   
1327 1612 1613  1   
1328 1613 1614  1   
1329 1613 1615  1   
1330 1613 1616  1   
1331 1617 1618  1   
1332 1618 1619  1   
1333 1618 1620  1   
1334 1618 1621  1   
1335 1622 1623  1   
1336 1623 1624  1   
1337 1623 1625  1   
1338 1623 1626  1   
1339 1627 1628  1   
1340 1628 1629  1   
1341 1628 1630  1   
1342 1628 1631  1   
1343 1632 1633  1   
1344 1633 1634  1   
1345 1633 1635  1   
1346 1633 1636  1   
1347 1637 1638  1   
1348 1638 1639  1   
1349 1638 1640  1   
1350 1638 1641  1   
1351 1642 1643  1   
1352 1643 1644  1   
1353 1643 1645  1   
1354 1643 1646  1   
1355 1647 1648  1   
1356 1648 1649  1   
1357 1648 1650  1   
1358 1648 1651  1   
1359 1652 1653  1   
1360 1653 1654  1   
1361 1653 1655  1   
1362 1653 1656  1   
1363 1657 1658  1   
1364 1658 1659  1   
1365 1658 1660  1   
1366 1658 1661  1   
1367 1662 1663  1   
1368 1663 1664  1   
1369 1663 1665  1   
1370 1663 1666  1   
1371 1667 1668  1   
1372 1668 1669  1   
1373 1668 1670  1   
1374 1668 1671  1   
1375 1672 1673  1   
1376 1673 1674  1   
1377 1673 1675  1   
1378 1673 1676  1   
1379 1677 1678  1   
1380 1678 1679  1   
1381 1678 1680  1   
1382 1678 1681  1   
1383 1682 1683  1   
1384 1683 1684  1   
1385 1683 1685  1   
1386 1683 1686  1   
1387 1687 1688  1   
1388 1688 1689  1   
1389 1688 1690  1   
1390 1688 1691  1   
1391 1692 1693  1   
1392 1693 1694  1   
1393 1693 1695  1   
1394 1693 1696  1   
1395 1697 1698  1   
1396 1698 1699  1   
1397 1698 1700  1   
1398 1698 1701  1   
1399 1702 1703  1   
1400 1703 1704  1   
1401 1703 1705  1   
1402 1703 1706  1   
1403 1707 1708  1   
1404 1708 1709  1   
1405 1708 1710  1   
1406 1708 1711  1   
1407 1712 1713  1   
1408 1713 1714  1   
1409 1713 1715  1   
1410 1713 1716  1   
1411 1717 1718  1   
1412 1718 1719  1   
1413 1718 1720  1   
1414 1718 1721  1   
1415 1722 1723  1   
1416 1723 1724  1   
1417 1723 1725  1   
1418 1723 1726  1   
1419 1727 1728  1   
1420 1728 1729  1   
1421 1728 1730  1   
1422 1728 1731  1   
1423 1732 1733  1   
1424 1733 1734  1   
1425 1733 1735  1   
1426 1733 1736  1   
1427 1737 1738  1   
1428 1738 1739  1   
1429 1738 1740  1   
1430 1738 1741  1   
1431 1742 1743  1   
1432 1743 1744  1   
1433 1743 1745  1   
1434 1743 1746  1   
1435 1747 1748  1   
1436 1748 1749  1   
1437 1748 1750  1   
1438 1748 1751  1   
1439 1752 1753  1   
1440 1753 1754  1   
1441 1753 1755  1   
1442 1753 1756  1   
1443 1757 1758  1   
1444 1758 1759  1   
1445 1758 1760  1   
1446 1758 1761  1   
1447 1762 1763  1   
1448 1763 1764  1   
1449 1763 1765  1   
1450 1763 1766  1   
1451 1767 1768  1   
1452 1768 1769  1   
1453 1768 1770  1   
1454 1768 1771  1   
1455 1772 1773  1   
1456 1773 1774  1   
1457 1773 1775  1   
1458 1773 1776  1   
1459 1777 1778  1   
1460 1778 1779  1   
1461 1778 1780  1   
1462 1778 1781  1   
1463 1782 1783  1   
1464 1783 1784  1   
1465 1783 1785  1   
1466 1783 1786  1   
1467 1787 1788  1   
1468 1788 1789  1   
1469 1788 1790  1   
1470 1788 1791  1   
1471 1792 1793  1   
1472 1793 1794  1   
1473 1793 1795  1   
1474 1793 1796  1   
1475 1797 1798  1   
1476 1798 1799  1   
1477 1798 1800  1   
1478 1798 1801  1   
1479 1802 1803  1   
1480 1803 1804  1   
1481 1803 1805  1   
1482 1803 1806  1   
1483 1807 1808  1   
1484 1808 1809  1   
1485 1808 1810  1   
1486 1808 1811  1   
1487 1812 1813  1   
1488 1813 1814  1   
1489 1813 1815  1   
1490 1813 1816  1   
1491 1817 1818  1   
1492 1818 1819  1   
1493 1818 1820  1   
1494 1818 1821  1   
1495 1822 1823  1   
1496 1823 1824  1   
1497 1823 1825  1   
1498 1823 1826  1   
1499 1827 1828  1   
1500 1828 1829  1   
1501 1828 1830  1   
1502 1828 1831  1   
1503 1832 1833  1   
1504 1833 1834  1   
1505 1833 1835  1   
1506 1833 1836  1   
1507 1837 1838  1   
1508 1838 1839  1   
1509 1838 1840  1   
1510 1838 1841  1   
1511 1842 1843  1   
1512 1843 1844  1   
1513 1843 1845  1   
1514 1843 1846  1   
1515 1847 1848  1   
1516 1848 1849  1   
1517 1848 1850  1   
1518 1848 1851  1   
1519 1852 1853  1   
1520 1853 1854  1   
1521 1853 1855  1   
1522 1853 1856  1   
1523 1857 1858  1   
1524 1858 1859  1   
1525 1858 1860  1   
1526 1858 1861  1   
1527 1862 1863  1   
1528 1863 1864  1   
1529 1863 1865  1   
1530 1863 1866  1   
1531 1867 1868  1   
1532 1868 1869  1   
1533 1868 1870  1   
1534 1868 1871  1   
1535 1872 1873  1   
1536 1873 1874  1   
1537 1873 1875  1   
1538 1873 1876  1   
1539 1877 1878  1   
1540 1878 1879  1   
1541 1878 1880  1   
1542 1878 1881  1   
1543 1882 1883  1   
1544 1883 1884  1   
1545 1883 1885  1   
1546 1883 1886  1   
1547 1887 1888  1   
1548 1888 1889  1   
1549 1888 1890  1   
1550 1888 1891  1   
1551 1892 1893  1   
1552 1893 1894  1   
1553 1893 1895  1   
1554 1893 1896  1   
1555 1897 1898  1   
1556 1898 1899  1   
1557 1898 1900  1   
1558 1898 1901  1   
1559 1902 1903  1   
1560 1903 1904  1   
1561 1903 1905  1   
1562 1903 1906  1   
1563 1907 1908  1   
1564 1908 1909  1   
1565 1908 1910  1   
1566 1908 1911  1   
1567 1912 1913  1   
1568 1913 1914  1   
1569 1913 1915  1   
1570 1913 1916  1   
1571 1917 1918  1   
1572 1918 1919  1   
1573 1918 1920  1   
1574 1918 1921  1   
1575 1922 1923  1   
1576 1923 1924  1   
1577 1923 1925  1   
1578 1923 1926  1   
1579 1927 1928  1   
1580 1928 1929  1   
1581 1928 1930  1   
1582 1928 1931  1   
1583 1932 1933  1   
1584 1933 1934  1   
1585 1933 1935  1   
1586 1933 1936  1   
1587 1937 1938  1   
1588 1938 1939  1   
1589 1938 1940  1   
1590 1938 1941  1   
1591 1942 1943  1   
1592 1943 1944  1   
1593 1943 1945  1   
1594 1943 1946  1   
1595 1947 1948  1   
1596 1948 1949  1   
1597 1948 1950  1   
1598 1948 1951  1   
1599 1952 1953  1   
1600 1953 1954  1   
1601 1953 1955  1   
1602 1953 1956  1   
1603 1957 1958  1   
1604 1958 1959  1   
1605 1958 1960  1   
1606 1958 1961  1   
1607 1962 1963  1   
1608 1963 1964  1   
1609 1963 1965  1   
1610 1963 1966  1   
1611 1967 1968  1   
1612 1968 1969  1   
1613 1968 1970  1   
1614 1968 1971  1   
1615 1972 1973  1   
1616 1973 1974  1   
1617 1973 1975  1   
1618 1973 1976  1   
1619 1977 1978  1   
1620 1978 1979  1   
1621 1978 1980  1   
1622 1978 1981  1   
1623 1982 1983  1   
1624 1983 1984  1   
1625 1983 1985  1   
1626 1983 1986  1   
1627 1987 1988  1   
1628 1988 1989  1   
1629 1988 1990  1   
1630 1988 1991  1   
1631 1992 1993  1   
1632 1993 1994  1   
1633 1993 1995  1   
1634 1993 1996  1   
1635 1997 1998  1   
1636 1998 1999  1   
1637 1998 2000  1   
1638 1998 2001  1   
1639 2002 2003  1   
1640 2003 2004  1   
1641 2003 2005  1   
1642 2003 2006  1   
1643 2007 2008  1   
1644 2008 2009  1   
1645 2008 2010  1   
1646 2008 2011  1   
1647 2012 2013  1   
1648 2013 2014  1   
1649 2013 2015  1   
1650 2013 2016  1   
1651 2017 2018  1   
1652 2018 2019  1   
1653 2018 2020  1   
1654 2018 2021  1   
1655 2022 2023  1   
1656 2023 2024  1   
1657 2023 2025  1   
1658 2023 2026  1   
1659 2027 2028  1   
1660 2028 2029  1   
1661 2028 2030  1   
1662 2028 2031  1   
1663 2032 2033  1   
1664 2033 2034  1   
1665 2033 2035  1   
1666 2033 2036  1   
1667 2037 2038  1   
1668 2038 2039  1   
1669 2038 2040  1   
1670 2038 2041  1   
1671 2042 2043  1   
1672 2043 2044  1   
1673 2043 2045  1   
1674 2043 2046  1   
1675 2047 2048  1   
1676 2048 2049  1   
1677 2048 2050  1   
1678 2048 2051  1   
1679 2052 2053  1   
1680 2053 2054  1   
1681 2053 2055  1   
1682 2053 2056  1   
1683 2057 2058  1   
1684 2058 2059  1   
1685 2058 2060  1   
1686 2058 2061  1   
1687 2062 2063  1   
1688 2063 2064  1   
1689 2063 2065  1   
1690 2063 2066  1   
1691 2067 2068  1   
1692 2068 2069  1   
1693 2068 2070  1   
1694 2068 2071  1   
1695 2072 2073  1   
1696 2073 2074  1   
1697 2073 2075  1   
1698 2073 2076  1   
1699 2077 2078  1   
1700 2078 2079  1   
1701 2078 2080  1   
1702 2078 2081  1   
1703 2082 2083  1   
1704 2083 2084  1   
1705 2083 2085  1   
1706 2083 2086  1   
1707 2087 2088  1   
1708 2088 2089  1   
1709 2088 2090  1   
1710 2088 2091  1   
1711 2092 2093  1   
1712 2093 2094  1   
1713 2093 2095  1   
1714 2093 2096  1   
1715 2097 2098  1   
1716 2098 2099  1   
1717 2098 2100  1   
1718 2098 2101  1   
1719 2102 2103  1   
1720 2103 2104  1   
1721 2103 2105  1   
1722 2103 2106  1   
1723 2107 2108  1   
1724 2108 2109  1   
1725 2108 2110  1   
1726 2108 2111  1   
1727 2112 2113  1   
1728 2113 2114  1   
1729 2113 2115  1   
1730 2113 2116  1   
1731 2117 2118  1   
1732 2118 2119  1   
1733 2118 2120  1   
1734 2118 2121  1   
1735 2122 2123  1   
1736 2123 2124  1   
1737 2123 2125  1   
1738 2123 2126  1   
1739 2127 2128  1   
1740 2128 2129  1   
1741 2128 2130  1   
1742 2128 2131  1   
1743 2132 2133  1   
1744 2133 2134  1   
1745 2133 2135  1   
1746 2133 2136  1   
1747 2137 2138  1   
1748 2138 2139  1   
1749 2138 2140  1   
1750 2138 2141  1   
1751 2142 2143  1   
1752 2143 2144  1   
1753 2143 2145  1   
1754 2143 2146  1   
1755 2147 2148  1   
1756 2148 2149  1   
1757 2148 2150  1   
1758 2148 2151  1   
1759 2152 2153  1   
1760 2153 2154  1   
1761 2153 2155  1   
1762 2153 2156  1   
1763 2157 2158  1   
1764 2158 2159  1   
1765 2158 2160  1   
1766 2158 2161  1   
1767 2162 2163  1   
1768 2163 2164  1   
1769 2163 2165  1   
1770 2163 2166  1   
1771 2167 2168  1   
1772 2168 2169  1   
1773 2168 2170  1   
1774 2168 2171  1   
1775 2172 2173  1   
1776 2173 2174  1   
1777 2173 2175  1   
1778 2173 2176  1   
1779 2177 2178  1   
1780 2178 2179  1   
1781 2178 2180  1   
1782 2178 2181  1   
1783 2182 2183  1   
1784 2183 2184  1   
1785 2183 2185  1   
1786 2183 2186  1   
1787 2187 2188  1   
1788 2188 2189  1   
1789 2188 2190  1   
1790 2188 2191  1   
1791 2192 2193  1   
1792 2193 2194  1   
1793 2193 2195  1   
1794 2193 2196  1   
1795 2197 2198  1   
1796 2198 2199  1   
1797 2198 2200  1   
1798 2198 2201  1   
1799 2202 2203  1   
1800 2203 2204  1   
1801 2203 2205  1   
1802 2203 2206  1   
1803 2207 2208  1   
1804 2208 2209  1   
1805 2208 2210  1   
1806 2208 2211  1   
1807 2212 2213  1   
1808 2213 2214  1   
1809 2213 2215  1   
1810 2213 2216  1   
1811 2217 2218  1   
1812 2218 2219  1   
1813 2218 2220  1   
1814 2218 2221  1   
1815 2222 2223  1   
1816 2223 2224  1   
1817 2223 2225  1   
1818 2223 2226  1   
1819 2227 2228  1   
1820 2228 2229  1   
1821 2228 2230  1   
1822 2228 2231  1   
1823 2232 2233  1   
1824 2233 2234  1   
1825 2233 2235  1   
1826 2233 2236  1   
1827 2237 2238  1   
1828 2238 2239  1   
1829 2238 2240  1   
1830 2238 2241  1   
1831 2242 2243  1   
1832 2243 2244  1   
1833 2243 2245  1   
1834 2243 2246  1   
1835 2247 2248  1   
1836 2248 2249  1   
1837 2248 2250  1   
1838 2248 2251  1   
1839 2252 2253  1   
1840 2253 2254  1   
1841 2253 2255  1   
1842 2253 2256  1   
1843 2257 2258  1   
1844 2258 2259  1   
1845 2258 2260  1   
1846 2258 2261  1   
1847 2262 2263  1   
1848 2263 2264  1   
1849 2263 2265  1   
1850 2263 2266  1   
1851 2267 2268  1   
1852 2268 2269  1   
1853 2268 2270  1   
1854 2268 2271  1   
1855 2272 2273  1   
1856 2273 2274  1   
1857 2273 2275  1   
1858 2273 2276  1   
1859 2277 2278  1   
1860 2278 2279  1   
1861 2278 2280  1   
1862 2278 2281  1   
1863 2282 2283  1   
1864 2283 2284  1   
1865 2283 2285  1   
1866 2283 2286  1   
1867 2287 2288  1   
1868 2288 2289  1   
1869 2288 2290  1   
1870 2288 2291  1   
1871 2292 2293  1   
1872 2293 2294  1   
1873 2293 2295  1   
1874 2293 2296  1   
1875 2297 2298  1   
1876 2298 2299  1   
1877 2298 2300  1   
1878 2298 2301  1   
1879 2302 2303  1   
1880 2303 2304  1   
1881 2303 2305  1   
1882 2303 2306  1   
1883 2307 2308  1   
1884 2308 2309  1   
1885 2308 2310  1   
1886 2308 2311  1   
1887 2312 2313  1   
1888 2313 2314  1   
1889 2313 2315  1   
1890 2313 2316  1   
1891 2317 2318  1   
1892 2318 2319  1   
1893 2318 2320  1   
1894 2318 2321  1   
1895 2322 2323  1   
1896 2323 2324  1   
1897 2323 2325  1   
1898 2323 2326  1   
1899 2327 2328  1   
1900 2328 2329  1   
1901 2328 2330  1   
1902 2328 2331  1   
1903 2332 2333  1   
1904 2333 2334  1   
1905 2333 2335  1   
1906 2333 2336  1   
1907 2337 2338  1   
1908 2338 2339  1   
1909 2338 2340  1   
1910 2338 2341  1   
1911 2342 2343  1   
1912 2343 2344  1   
1913 2343 2345  1   
1914 2343 2346  1   
1915 2347 2348  1   
1916 2348 2349  1   
1917 2348 2350  1   
1918 2348 2351  1   
@<TRIPOS>SUBSTRUCTURE
  1 ****   35 GROUP 4 Q1 **** 0
  2 CCL4  168 GROUP 4 Q2 **** 0
  3 CCL4  173 GROUP 4 Q2 **** 0
  4 CCL4  178 GROUP 4 Q2 **** 0
  5 CCL4  183 GROUP 4 Q2 **** 0
  6 CCL4  188 GROUP 4 Q2 **** 0
  7 CCL4  193 GROUP 4 Q2 **** 0
  8 CCL4  198 GROUP 4 Q2 **** 0
  9 CCL4  203 GROUP 4 Q2 **** 0
 10 CCL4  208 GROUP 4 Q2 **** 0
 11 CCL4  213 GROUP 4 Q2 **** 0
 12 CCL4  218 GROUP 4 Q2 **** 0
 13 CCL4  223 GROUP 4 Q2 **** 0
 14 CCL4  228 GROUP 4 Q2 **** 0
 15 CCL4  233 GROUP 4 Q2 **** 0
 16 CCL4  238 GROUP 4 Q2 **** 0
 17 CCL4  243 GROUP 4 Q2 **** 0
 18 CCL4  248 GROUP 4 Q2 **** 0
 19 CCL4  253 GROUP 4 Q2 **** 0
 20 CCL4  258 GROUP 4 Q2 **** 0
 21 CCL4  263 GROUP 4 Q2 **** 0
 22 CCL4  268 GROUP 4 Q2 **** 0
 23 CCL4  273 GROUP 4 Q2 **** 0
 24 CCL4  278 GROUP 4 Q2 **** 0
 25 CCL4  283 GROUP 4 Q2 **** 0
 26 CCL4  288 GROUP 4 Q2 **** 0
 27 CCL4  293 GROUP 4 Q2 **** 0
 28 CCL4  298 GROUP 4 Q2 **** 0
 29 CCL4  303 GROUP 4 Q2 **** 0
 30 CCL4  308 GROUP 4 Q2 **** 0
 31 CCL4  313 GROUP 4 Q2 **** 0
 32 CCL4  318 GROUP 4 Q2 **** 0
 33 CCL4  323 GROUP 4 Q2 **** 0
 34 CCL4  328 GROUP 4 Q2 **** 0
 35 CCL4  333 GROUP 4 Q2 **** 0
 36 CCL4  338 GROUP 4 Q2 **** 0
 37 CCL4  343 GROUP 4 Q2 **** 0
 38 CCL4  348 GROUP 4 Q2 **** 0
 39 CCL4  353 GROUP 4 Q2 **** 0
 40 CCL4  358 GROUP 4 Q2 **** 0
 41 CCL4  363 GROUP 4 Q2 **** 0
 42 CCL4  368 GROUP 4 Q2 **** 0
 43 CCL4  373 GROUP 4 Q2 **** 0
 44 CCL4  378 GROUP 4 Q2 **** 0
 45 CCL4  383 GROUP 4 Q2 **** 0
 46 CCL4  388 GROUP 4 Q2 **** 0
 47 CCL4  393 GROUP 4 Q2 **** 0
 48 CCL4  398 GROUP 4 Q2 **** 0
 49 CCL4  403 GROUP 4 Q2 **** 0
 50 CCL4  408 GROUP 4 Q2 **** 0
 51 CCL4  413 GROUP 4 Q2 **** 0
 52 CCL4  418 GROUP 4 Q2 **** 0
 53 CCL4  423 GROUP 4 Q2 **** 0
 54 CCL4  428 GROUP 4 Q2 **** 0
 55 CCL4  433 GROUP 4 Q2 **** 0
 56 CCL4  438 GROUP 4 Q2 **** 0
 57 CCL4  443 GROUP 4 Q2 **** 0
 58 CCL4  448 GROUP 4 Q2 **** 0
 59 CCL4  453 GROUP 4 Q2 **** 0
 60 CCL4  458 GROUP 4 Q2 **** 0
 61 CCL4  463 GROUP 4 Q2 **** 0
 62 CCL4  468 GROUP 4 Q2 **** 0
 63 CCL4  473 GROUP 4 Q2 **** 0
 64 CCL4  478 GROUP 4 Q2 **** 0
 65 CCL4  483 GROUP 4 Q2 **** 0
 66 CCL4  488 GROUP 4 Q2 **** 0
 67 CCL4  493 GROUP 4 Q2 **** 0
 68 CCL4  498 GROUP 4 Q2 **** 0
 69 CCL4  503 GROUP 4 Q2 **** 0
 70 CCL4  508 GROUP 4 Q2 **** 0
 71 CCL4  513 GROUP 4 Q2 **** 0
 72 CCL4  518 GROUP 4 Q2 **** 0
 73 CCL4  523 GROUP 4 Q2 **** 0
 74 CCL4  528 GROUP 4 Q2 **** 0
 75 CCL4  533 GROUP 4 Q2 **** 0
 76 CCL4  538 GROUP 4 Q2 **** 0
 77 CCL4  543 GROUP 4 Q2 **** 0
 78 CCL4  548 GROUP 4 Q2 **** 0
 79 CCL4  553 GROUP 4 Q2 **** 0
 80 CCL4  558 GROUP 4 Q2 **** 0
 81 CCL4  563 GROUP 4 Q2 **** 0
 82 CCL4  568 GROUP 4 Q2 **** 0
 83 CCL4  573 GROUP 4 Q2 **** 0
 84 CCL4  578 GROUP 4 Q2 **** 0
 85 CCL4  583 GROUP 4 Q2 **** 0
 86 CCL4  588 GROUP 4 Q2 **** 0
 87 CCL4  593 GROUP 4 Q2 **** 0
 88 CCL4  598 GROUP 4 Q2 **** 0
 89 CCL4  603 GROUP 4 Q2 **** 0
 90 CCL4  608 GROUP 4 Q2 **** 0
 91 CCL4  613 GROUP 4 Q2 **** 0
 92 CCL4  618 GROUP 4 Q2 **** 0
 93 CCL4  623 GROUP 4 Q2 **** 0
 94 CCL4  628 GROUP 4 Q2 **** 0
 95 CCL4  633 GROUP 4 Q2 **** 0
 96 CCL4  638 GROUP 4 Q2 **** 0
 97 CCL4  643 GROUP 4 Q2 **** 0
 98 CCL4  648 GROUP 4 Q2 **** 0
 99 CCL4  653 GROUP 4 Q2 **** 0
100 CCL4  658 GROUP 4 Q2 **** 0
101 CCL4  663 GROUP 4 Q2 **** 0
102 CCL4  668 GROUP 4 Q2 **** 0
103 CCL4  673 GROUP 4 Q2 **** 0
104 CCL4  678 GROUP 4 Q2 **** 0
105 CCL4  683 GROUP 4 Q2 **** 0
106 CCL4  688 GROUP 4 Q2 **** 0
107 CCL4  693 GROUP 4 Q2 **** 0
108 CCL4  698 GROUP 4 Q2 **** 0
109 CCL4  703 GROUP 4 Q2 **** 0
110 CCL4  708 GROUP 4 Q2 **** 0
111 CCL4  713 GROUP 4 Q2 **** 0
112 CCL4  718 GROUP 4 Q2 **** 0
113 CCL4  723 GROUP 4 Q2 **** 0
114 CCL4  728 GROUP 4 Q2 **** 0
115 CCL4  733 GROUP 4 Q2 **** 0
116 CCL4  738 GROUP 4 Q2 **** 0
117 CCL4  743 GROUP 4 Q2 **** 0
118 CCL4  748 GROUP 4 Q2 **** 0
119 CCL4  753 GROUP 4 Q2 **** 0
120 CCL4  758 GROUP 4 Q2 **** 0
121 CCL4  763 GROUP 4 Q2 **** 0
122 CCL4  768 GROUP 4 Q2 **** 0
123 CCL4  773 GROUP 4 Q2 **** 0
124 CCL4  778 GROUP 4 Q2 **** 0
125 CCL4  783 GROUP 4 Q2 **** 0
126 CCL4  788 GROUP 4 Q2 **** 0
127 CCL4  793 GROUP 4 Q2 **** 0
128 CCL4  798 GROUP 4 Q2 **** 0
129 CCL4  803 GROUP 4 Q2 **** 0
130 CCL4  808 GROUP 4 Q2 **** 0
131 CCL4  813 GROUP 4 Q2 **** 0
132 CCL4  818 GROUP 4 Q2 **** 0
133 CCL4  823 GROUP 4 Q2 **** 0
134 CCL4  828 GROUP 4 Q2 **** 0
135 CCL4  833 GROUP 4 Q2 **** 0
136 CCL4  838 GROUP 4 Q2 **** 0
137 CCL4  843 GROUP 4 Q2 **** 0
138 CCL4  848 GROUP 4 Q2 **** 0
139 CCL4  853 GROUP 4 Q2 **** 0
140 CCL4  858 GROUP 4 Q2 **** 0
141 CCL4  863 GROUP 4 Q2 **** 0
142 CCL4  868 GROUP 4 Q2 **** 0
143 CCL4  873 GROUP 4 Q2 **** 0
144 CCL4  878 GROUP 4 Q2 **** 0
145 CCL4  883 GROUP 4 Q2 **** 0
146 CCL4  888 GROUP 4 Q2 **** 0
147 CCL4  893 GROUP 4 Q2 **** 0
148 CCL4  898 GROUP 4 Q2 **** 0
149 CCL4  903 GROUP 4 Q2 **** 0
150 CCL4  908 GROUP 4 Q2 **** 0
151 CCL4  913 GROUP 4 Q2 **** 0
152 CCL4  918 GROUP 4 Q2 **** 0
153 CCL4  923 GROUP 4 Q2 **** 0
154 CCL4  928 GROUP 4 Q2 **** 0
155 CCL4  933 GROUP 4 Q2 **** 0
156 CCL4  938 GROUP 4 Q2 **** 0
157 CCL4  943 GROUP 4 Q2 **** 0
158 CCL4  948 GROUP 4 Q2 **** 0
159 CCL4  953 GROUP 4 Q2 **** 0
160 CCL4  958 GROUP 4 Q2 **** 0
161 CCL4  963 GROUP 4 Q2 **** 0
162 CCL4  968 GROUP 4 Q2 **** 0
163 CCL4  973 GROUP 4 Q2 **** 0
164 CCL4  978 GROUP 4 Q2 **** 0
165 CCL4  983 GROUP 4 Q2 **** 0
166 CCL4  988 GROUP 4 Q2 **** 0
167 CCL4  993 GROUP 4 Q2 **** 0
168 CCL4  998 GROUP 4 Q2 **** 0
169 CCL4 1003 GROUP 4 Q2 **** 0
170 CCL4 1008 GROUP 4 Q2 **** 0
171 CCL4 1013 GROUP 4 Q2 **** 0
172 CCL4 1018 GROUP 4 Q2 **** 0
173 CCL4 1023 GROUP 4 Q2 **** 0
174 CCL4 1028 GROUP 4 Q2 **** 0
175 CCL4 1033 GROUP 4 Q2 **** 0
176 CCL4 1038 GROUP 4 Q2 **** 0
177 CCL4 1043 GROUP 4 Q2 **** 0
178 CCL4 1048 GROUP 4 Q2 **** 0
179 CCL4 1053 GROUP 4 Q2 **** 0
180 CCL4 1058 GROUP 4 Q2 **** 0
181 CCL4 1063 GROUP 4 Q2 **** 0
182 CCL4 1068 GROUP 4 Q2 **** 0
183 CCL4 1073 GROUP 4 Q2 **** 0
184 CCL4 1078 GROUP 4 Q2 **** 0
185 CCL4 1083 GROUP 4 Q2 **** 0
186 CCL4 1088 GROUP 4 Q2 **** 0
187 CCL4 1093 GROUP 4 Q2 **** 0
188 CCL4 1098 GROUP 4 Q2 **** 0
189 CCL4 1103 GROUP 4 Q2 **** 0
190 CCL4 1108 GROUP 4 Q2 **** 0
191 CCL4 1113 GROUP 4 Q2 **** 0
192 CCL4 1118 GROUP 4 Q2 **** 0
193 CCL4 1123 GROUP 4 Q2 **** 0
194 CCL4 1128 GROUP 4 Q2 **** 0
195 CCL4 1133 GROUP 4 Q2 **** 0
196 CCL4 1138 GROUP 4 Q2 **** 0
197 CCL4 1143 GROUP 4 Q2 **** 0
198 CCL4 1148 GROUP 4 Q2 **** 0
199 CCL4 1153 GROUP 4 Q2 **** 0
200 CCL4 1158 GROUP 4 Q2 **** 0
201 CCL4 1163 GROUP 4 Q2 **** 0
202 CCL4 1168 GROUP 4 Q2 **** 0
203 CCL4 1173 GROUP 4 Q2 **** 0
204 CCL4 1178 GROUP 4 Q2 **** 0
205 CCL4 1183 GROUP 4 Q2 **** 0
206 CCL4 1188 GROUP 4 Q2 **** 0
207 CCL4 1193 GROUP 4 Q2 **** 0
208 CCL4 1198 GROUP 4 Q2 **** 0
209 CCL4 1203 GROUP 4 Q2 **** 0
210 CCL4 1208 GROUP 4 Q2 **** 0
211 CCL4 1213 GROUP 4 Q2 **** 0
212 CCL4 1218 GROUP 4 Q2 **** 0
213 CCL4 1223 GROUP 4 Q2 **** 0
214 CCL4 1228 GROUP 4 Q2 **** 0
215 CCL4 1233 GROUP 4 Q2 **** 0
216 CCL4 1238 GROUP 4 Q2 **** 0
217 CCL4 1243 GROUP 4 Q2 **** 0
218 CCL4 1248 GROUP 4 Q2 **** 0
219 CCL4 1253 GROUP 4 Q2 **** 0
220 CCL4 1258 GROUP 4 Q2 **** 0
221 CCL4 1263 GROUP 4 Q2 **** 0
222 CCL4 1268 GROUP 4 Q2 **** 0
223 CCL4 1273 GROUP 4 Q2 **** 0
224 CCL4 1278 GROUP 4 Q2 **** 0
225 CCL4 1283 GROUP 4 Q2 **** 0
226 CCL4 1288 GROUP 4 Q2 **** 0
227 CCL4 1293 GROUP 4 Q2 **** 0
228 CCL4 1298 GROUP 4 Q2 **** 0
229 CCL4 1303 GROUP 4 Q2 **** 0
230 CCL4 1308 GROUP 4 Q2 **** 0
231 CCL4 1313 GROUP 4 Q2 **** 0
232 CCL4 1318 GROUP 4 Q2 **** 0
233 CCL4 1323 GROUP 4 Q2 **** 0
234 CCL4 1328 GROUP 4 Q2 **** 0
235 CCL4 1333 GROUP 4 Q2 **** 0
236 CCL4 1338 GROUP 4 Q2 **** 0
237 CCL4 1343 GROUP 4 Q2 **** 0
238 CCL4 1348 GROUP 4 Q2 **** 0
239 CCL4 1353 GROUP 4 Q2 **** 0
240 CCL4 1358 GROUP 4 Q2 **** 0
241 CCL4 1363 GROUP 4 Q2 **** 0
242 CCL4 1368 GROUP 4 Q2 **** 0
243 CCL4 1373 GROUP 4 Q2 **** 0
244 CCL4 1378 GROUP 4 Q2 **** 0
245 CCL4 1383 GROUP 4 Q2 **** 0
246 CCL4 1388 GROUP 4 Q2 **** 0
247 CCL4 1393 GROUP 4 Q2 **** 0
248 CCL4 1398 GROUP 4 Q2 **** 0
249 CCL4 1403 GROUP 4 Q2 **** 0
250 CCL4 1408 GROUP 4 Q2 **** 0
251 CCL4 1413 GROUP 4 Q2 **** 0
252 CCL4 1418 GROUP 4 Q2 **** 0
253 CCL4 1423 GROUP 4 Q2 **** 0
254 CCL4 1428 GROUP 4 Q2 **** 0
255 CCL4 1433 GROUP 4 Q2 **** 0
256 CCL4 1438 GROUP 4 Q2 **** 0
257 CCL4 1443 GROUP 4 Q2 **** 0
258 CCL4 1448 GROUP 4 Q2 **** 0
259 CCL4 1453 GROUP 4 Q2 **** 0
260 CCL4 1458 GROUP 4 Q2 **** 0
261 CCL4 1463 GROUP 4 Q2 **** 0
262 CCL4 1468 GROUP 4 Q2 **** 0
263 CCL4 1473 GROUP 4 Q2 **** 0
264 CCL4 1478 GROUP 4 Q2 **** 0
265 CCL4 1483 GROUP 4 Q2 **** 0
266 CCL4 1488 GROUP 4 Q2 **** 0
267 CCL4 1493 GROUP 4 Q2 **** 0
268 CCL4 1498 GROUP 4 Q2 **** 0
269 CCL4 1503 GROUP 4 Q2 **** 0
270 CCL4 1508 GROUP 4 Q2 **** 0
271 CCL4 1513 GROUP 4 Q2 **** 0
272 CCL4 1518 GROUP 4 Q2 **** 0
273 CCL4 1523 GROUP 4 Q2 **** 0
274 CCL4 1528 GROUP 4 Q2 **** 0
275 CCL4 1533 GROUP 4 Q2 **** 0
276 CCL4 1538 GROUP 4 Q2 **** 0
277 CCL4 1543 GROUP 4 Q2 **** 0
278 CCL4 1548 GROUP 4 Q2 **** 0
279 CCL4 1553 GROUP 4 Q2 **** 0
280 CCL4 1558 GROUP 4 Q2 **** 0
281 CCL4 1563 GROUP 4 Q2 **** 0
282 CCL4 1568 GROUP 4 Q2 **** 0
283 CCL4 1573 GROUP 4 Q2 **** 0
284 CCL4 1578 GROUP 4 Q2 **** 0
285 CCL4 1583 GROUP 4 Q2 **** 0
286 CCL4 1588 GROUP 4 Q2 **** 0
287 CCL4 1593 GROUP 4 Q2 **** 0
288 CCL4 1598 GROUP 4 Q2 **** 0
289 CCL4 1603 GROUP 4 Q2 **** 0
290 CCL4 1608 GROUP 4 Q2 **** 0
291 CCL4 1613 GROUP 4 Q2 **** 0
292 CCL4 1618 GROUP 4 Q2 **** 0
293 CCL4 1623 GROUP 4 Q2 **** 0
294 CCL4 1628 GROUP 4 Q2 **** 0
295 CCL4 1633 GROUP 4 Q2 **** 0
296 CCL4 1638 GROUP 4 Q2 **** 0
297 CCL4 1643 GROUP 4 Q2 **** 0
298 CCL4 1648 GROUP 4 Q2 **** 0
299 CCL4 1653 GROUP 4 Q2 **** 0
300 CCL4 1658 GROUP 4 Q2 **** 0
301 CCL4 1663 GROUP 4 Q2 **** 0
302 CCL4 1668 GROUP 4 Q2 **** 0
303 CCL4 1673 GROUP 4 Q2 **** 0
304 CCL4 1678 GROUP 4 Q2 **** 0
305 CCL4 1683 GROUP 4 Q2 **** 0
306 CCL4 1688 GROUP 4 Q2 **** 0
307 CCL4 1693 GROUP 4 Q2 **** 0
308 CCL4 1698 GROUP 4 Q2 **** 0
309 CCL4 1703 GROUP 4 Q2 **** 0
310 CCL4 1708 GROUP 4 Q2 **** 0
311 CCL4 1713 GROUP 4 Q2 **** 0
312 CCL4 1718 GROUP 4 Q2 **** 0
313 CCL4 1723 GROUP 4 Q2 **** 0
314 CCL4 1728 GROUP 4 Q2 **** 0
315 CCL4 1733 GROUP 4 Q2 **** 0
316 CCL4 1738 GROUP 4 Q2 **** 0
317 CCL4 1743 GROUP 4 Q2 **** 0
318 CCL4 1748 GROUP 4 Q2 **** 0
319 CCL4 1753 GROUP 4 Q2 **** 0
320 CCL4 1758 GROUP 4 Q2 **** 0
321 CCL4 1763 GROUP 4 Q2 **** 0
322 CCL4 1768 GROUP 4 Q2 **** 0
323 CCL4 1773 GROUP 4 Q2 **** 0
324 CCL4 1778 GROUP 4 Q2 **** 0
325 CCL4 1783 GROUP 4 Q2 **** 0
326 CCL4 1788 GROUP 4 Q2 **** 0
327 CCL4 1793 GROUP 4 Q2 **** 0
328 CCL4 1798 GROUP 4 Q2 **** 0
329 CCL4 1803 GROUP 4 Q2 **** 0
330 CCL4 1808 GROUP 4 Q2 **** 0
331 CCL4 1813 GROUP 4 Q2 **** 0
332 CCL4 1818 GROUP 4 Q2 **** 0
333 CCL4 1823 GROUP 4 Q2 **** 0
334 CCL4 1828 GROUP 4 Q2 **** 0
335 CCL4 1833 GROUP 4 Q2 **** 0
336 CCL4 1838 GROUP 4 Q2 **** 0
337 CCL4 1843 GROUP 4 Q2 **** 0
338 CCL4 1848 GROUP 4 Q2 **** 0
339 CCL4 1853 GROUP 4 Q2 **** 0
340 CCL4 1858 GROUP 4 Q2 **** 0
341 CCL4 1863 GROUP 4 Q2 **** 0
342 CCL4 1868 GROUP 4 Q2 **** 0
343 CCL4 1873 GROUP 4 Q2 **** 0
344 CCL4 1878 GROUP 4 Q2 **** 0
345 CCL4 1883 GROUP 4 Q2 **** 0
346 CCL4 1888 GROUP 4 Q2 **** 0
347 CCL4 1893 GROUP 4 Q2 **** 0
348 CCL4 1898 GROUP 4 Q2 **** 0
349 CCL4 1903 GROUP 4 Q2 **** 0
350 CCL4 1908 GROUP 4 Q2 **** 0
351 CCL4 1913 GROUP 4 Q2 **** 0
352 CCL4 1918 GROUP 4 Q2 **** 0
353 CCL4 1923 GROUP 4 Q2 **** 0
354 CCL4 1928 GROUP 4 Q2 **** 0
355 CCL4 1933 GROUP 4 Q2 **** 0
356 CCL4 1938 GROUP 4 Q2 **** 0
357 CCL4 1943 GROUP 4 Q2 **** 0
358 CCL4 1948 GROUP 4 Q2 **** 0
359 CCL4 1953 GROUP 4 Q2 **** 0
360 CCL4 1958 GROUP 4 Q2 **** 0
361 CCL4 1963 GROUP 4 Q2 **** 0
362 CCL4 1968 GROUP 4 Q2 **** 0
363 CCL4 1973 GROUP 4 Q2 **** 0
364 CCL4 1978 GROUP 4 Q2 **** 0
365 CCL4 1983 GROUP 4 Q2 **** 0
366 CCL4 1988 GROUP 4 Q2 **** 0
367 CCL4 1993 GROUP 4 Q2 **** 0
368 CCL4 1998 GROUP 4 Q2 **** 0
369 CCL4 2003 GROUP 4 Q2 **** 0
370 CCL4 2008 GROUP 4 Q2 **** 0
371 CCL4 2013 GROUP 4 Q2 **** 0
372 CCL4 2018 GROUP 4 Q2 **** 0
373 CCL4 2023 GROUP 4 Q2 **** 0
374 CCL4 2028 GROUP 4 Q2 **** 0
375 CCL4 2033 GROUP 4 Q2 **** 0
376 CCL4 2038 GROUP 4 Q2 **** 0
377 CCL4 2043 GROUP 4 Q2 **** 0
378 CCL4 2048 GROUP 4 Q2 **** 0
379 CCL4 2053 GROUP 4 Q2 **** 0
380 CCL4 2058 GROUP 4 Q2 **** 0
381 CCL4 2063 GROUP 4 Q2 **** 0
382 CCL4 2068 GROUP 4 Q2 **** 0
383 CCL4 2073 GROUP 4 Q2 **** 0
384 CCL4 2078 GROUP 4 Q2 **** 0
385 CCL4 2083 GROUP 4 Q2 **** 0
386 CCL4 2088 GROUP 4 Q2 **** 0
387 CCL4 2093 GROUP 4 Q2 **** 0
388 CCL4 2098 GROUP 4 Q2 **** 0
389 CCL4 2103 GROUP 4 Q2 **** 0
390 CCL4 2108 GROUP 4 Q2 **** 0
391 CCL4 2113 GROUP 4 Q2 **** 0
392 CCL4 2118 GROUP 4 Q2 **** 0
393 CCL4 2123 GROUP 4 Q2 **** 0
394 CCL4 2128 GROUP 4 Q2 **** 0
395 CCL4 2133 GROUP 4 Q2 **** 0
396 CCL4 2138 GROUP 4 Q2 **** 0
397 CCL4 2143 GROUP 4 Q2 **** 0
398 CCL4 2148 GROUP 4 Q2 **** 0
399 CCL4 2153 GROUP 4 Q2 **** 0
400 CCL4 2158 GROUP 4 Q2 **** 0
401 CCL4 2163 GROUP 4 Q2 **** 0
402 CCL4 2168 GROUP 4 Q2 **** 0
403 CCL4 2173 GROUP 4 Q2 **** 0
404 CCL4 2178 GROUP 4 Q2 **** 0
405 CCL4 2183 GROUP 4 Q2 **** 0
406 CCL4 2188 GROUP 4 Q2 **** 0
407 CCL4 2193 GROUP 4 Q2 **** 0
408 CCL4 2198 GROUP 4 Q2 **** 0
409 CCL4 2203 GROUP 4 Q2 **** 0
410 CCL4 2208 GROUP 4 Q2 **** 0
411 CCL4 2213 GROUP 4 Q2 **** 0
412 CCL4 2218 GROUP 4 Q2 **** 0
413 CCL4 2223 GROUP 4 Q2 **** 0
414 CCL4 2228 GROUP 4 Q2 **** 0
415 CCL4 2233 GROUP 4 Q2 **** 0
416 CCL4 2238 GROUP 4 Q2 **** 0
417 CCL4 2243 GROUP 4 Q2 **** 0
418 CCL4 2248 GROUP 4 Q2 **** 0
419 CCL4 2253 GROUP 4 Q2 **** 0
420 CCL4 2258 GROUP 4 Q2 **** 0
421 CCL4 2263 GROUP 4 Q2 **** 0
422 CCL4 2268 GROUP 4 Q2 **** 0
423 CCL4 2273 GROUP 4 Q2 **** 0
424 CCL4 2278 GROUP 4 Q2 **** 0
425 CCL4 2283 GROUP 4 Q2 **** 0
426 CCL4 2288 GROUP 4 Q2 **** 0
427 CCL4 2293 GROUP 4 Q2 **** 0
428 CCL4 2298 GROUP 4 Q2 **** 0
429 CCL4 2303 GROUP 4 Q2 **** 0
430 CCL4 2308 GROUP 4 Q2 **** 0
431 CCL4 2313 GROUP 4 Q2 **** 0
432 CCL4 2318 GROUP 4 Q2 **** 0
433 CCL4 2323 GROUP 4 Q2 **** 0
434 CCL4 2328 GROUP 4 Q2 **** 0
435 CCL4 2333 GROUP 4 Q2 **** 0
436 CCL4 2338 GROUP 4 Q2 **** 0
437 CCL4 2343 GROUP 4 Q2 **** 0
438 CCL4 2348 GROUP 4 Q2 **** 0

# MOE 2020.09 (io_trps.svl 2020.11)
