C27H37NOS2
APtclcactv01192314223D 0   0.00000     0.00000
 
 68 70  0  0  0  0  0  0  0  0999 V2000
   11.5373    0.9951   -0.0166 C   0  0  0  0  0  0  0  0  0  0  0  0
   10.8425    2.2321    0.5888 C   0  0  0  0  0  0  0  0  0  0  0  0
    9.3744    1.8042    0.8006 C   0  0  0  0  0  0  0  0  0  0  0  0
    9.4270    0.3228    0.9004 N   0  0  0  0  0  0  0  0  0  0  0  0
    8.1859   -0.2394    0.6249 C   0  0  0  0  0  0  0  0  0  0  0  0
    8.1092   -1.4892    0.0155 C   0  0  0  0  0  0  0  0  0  0  0  0
    6.8868   -2.0466   -0.2577 C   0  0  0  0  0  0  0  0  0  0  0  0
    5.7157   -1.3584    0.0766 C   0  0  0  0  0  0  0  0  0  0  0  0
    4.3992   -1.9550   -0.2153 C   0  0  0  0  0  0  0  0  0  0  0  0
    4.2930   -3.1598   -0.3468 O   0  0  0  0  0  0  0  0  0  0  0  0
    3.2117   -1.0917   -0.3476 C   0  0  0  0  0  0  0  0  0  0  0  0
    3.3611    0.2607   -0.6743 C   0  0  0  0  0  0  0  0  0  0  0  0
    2.2590    1.0580   -0.7962 C   0  0  0  0  0  0  0  0  0  0  0  0
    0.9868    0.5262   -0.5950 C   0  0  0  0  0  0  0  0  0  0  0  0
   -0.4326    1.5582   -0.7530 S   0  0  0  0  0  0  0  0  0  0  0  0
   -1.8036    0.4228   -0.4039 C   0  0  0  0  0  0  0  0  0  0  0  0
   -3.1299    1.1792   -0.5027 C   0  0  0  0  0  0  0  0  0  0  0  0
   -4.2862    0.2215   -0.2082 C   0  0  0  0  0  0  0  0  0  0  0  0
   -5.6125    0.9779   -0.3069 C   0  0  0  0  0  0  0  0  0  0  0  0
   -6.7689    0.0202   -0.0124 C   0  0  0  0  0  0  0  0  0  0  0  0
   -8.0952    0.7766   -0.1112 C   0  0  0  0  0  0  0  0  0  0  0  0
   -9.2515   -0.1811    0.1833 C   0  0  0  0  0  0  0  0  0  0  0  0
  -10.5779    0.5753    0.0845 C   0  0  0  0  0  0  0  0  0  0  0  0
  -11.7342   -0.3824    0.3790 C   0  0  0  0  0  0  0  0  0  0  0  0
  -13.0605    0.3740    0.2803 C   0  0  0  0  0  0  0  0  0  0  0  0
  -14.4315   -0.7614    0.6294 S   0  0  0  0  0  0  0  0  0  0  0  0
    0.8347   -0.8202   -0.2694 C   0  0  0  0  0  0  0  0  0  0  0  0
    1.9325   -1.6241   -0.1523 C   0  0  0  0  0  0  0  0  0  0  0  0
    5.7963   -0.1032    0.6886 C   0  0  0  0  0  0  0  0  0  0  0  0
    7.0220    0.4459    0.9641 C   0  0  0  0  0  0  0  0  0  0  0  0
   10.4305   -0.0763   -0.1197 C   0  0  0  0  0  0  0  0  0  0  0  0
   11.9316    1.2284   -1.0056 H   0  0  0  0  0  0  0  0  0  0  0  0
   12.3371    0.6512    0.6393 H   0  0  0  0  0  0  0  0  0  0  0  0
   11.3013    2.4955    1.5418 H   0  0  0  0  0  0  0  0  0  0  0  0
   10.8957    3.0727   -0.1031 H   0  0  0  0  0  0  0  0  0  0  0  0
    8.9824    2.2336    1.7226 H   0  0  0  0  0  0  0  0  0  0  0  0
    8.7638    2.1064   -0.0503 H   0  0  0  0  0  0  0  0  0  0  0  0
    9.0138   -2.0198   -0.2426 H   0  0  0  0  0  0  0  0  0  0  0  0
    6.8280   -3.0157   -0.7306 H   0  0  0  0  0  0  0  0  0  0  0  0
    4.3469    0.6736   -0.8297 H   0  0  0  0  0  0  0  0  0  0  0  0
    2.3736    2.1019   -1.0483 H   0  0  0  0  0  0  0  0  0  0  0  0
   -1.7947   -0.3913   -1.1286 H   0  0  0  0  0  0  0  0  0  0  0  0
   -1.6914    0.0159    0.6010 H   0  0  0  0  0  0  0  0  0  0  0  0
   -3.1388    1.9933    0.2221 H   0  0  0  0  0  0  0  0  0  0  0  0
   -3.2421    1.5861   -1.5076 H   0  0  0  0  0  0  0  0  0  0  0  0
   -4.2774   -0.5926   -0.9329 H   0  0  0  0  0  0  0  0  0  0  0  0
   -4.1740   -0.1854    0.7968 H   0  0  0  0  0  0  0  0  0  0  0  0
   -5.6214    1.7920    0.4178 H   0  0  0  0  0  0  0  0  0  0  0  0
   -5.7248    1.3848   -1.3119 H   0  0  0  0  0  0  0  0  0  0  0  0
   -6.7600   -0.7939   -0.7372 H   0  0  0  0  0  0  0  0  0  0  0  0
   -6.6567   -0.3867    0.9925 H   0  0  0  0  0  0  0  0  0  0  0  0
   -8.1041    1.5907    0.6136 H   0  0  0  0  0  0  0  0  0  0  0  0
   -8.2074    1.1835   -1.1161 H   0  0  0  0  0  0  0  0  0  0  0  0
   -9.2427   -0.9951   -0.5414 H   0  0  0  0  0  0  0  0  0  0  0  0
   -9.1393   -0.5880    1.1882 H   0  0  0  0  0  0  0  0  0  0  0  0
  -10.5867    1.3894    0.8093 H   0  0  0  0  0  0  0  0  0  0  0  0
  -10.6901    0.9822   -0.9204 H   0  0  0  0  0  0  0  0  0  0  0  0
  -11.7253   -1.1964   -0.3457 H   0  0  0  0  0  0  0  0  0  0  0  0
  -11.6220   -0.7893    1.3840 H   0  0  0  0  0  0  0  0  0  0  0  0
  -13.0694    1.1881    1.0050 H   0  0  0  0  0  0  0  0  0  0  0  0
  -13.1727    0.7809   -0.7247 H   0  0  0  0  0  0  0  0  0  0  0  0
  -15.5149    0.0264    0.5088 H   0  0  0  0  0  0  0  0  0  0  0  0
   -0.1526   -1.2294   -0.1141 H   0  0  0  0  0  0  0  0  0  0  0  0
    1.8140   -2.6675    0.1001 H   0  0  0  0  0  0  0  0  0  0  0  0
    4.8941    0.4310    0.9476 H   0  0  0  0  0  0  0  0  0  0  0  0
    7.0850    1.4150    1.4367 H   0  0  0  0  0  0  0  0  0  0  0  0
    9.9852   -0.0684   -1.1145 H   0  0  0  0  0  0  0  0  0  0  0  0
   10.8338   -1.0627    0.1094 H   0  0  0  0  0  0  0  0  0  0  0  0
  1  2  1  0  0  0  0
  2  3  1  0  0  0  0
  3  4  1  0  0  0  0
  4  5  1  0  0  0  0
  5  6  2  0  0  0  0
  6  7  1  0  0  0  0
  7  8  2  0  0  0  0
  8  9  1  0  0  0  0
  9 10  2  0  0  0  0
  9 11  1  0  0  0  0
 11 12  2  0  0  0  0
 12 13  1  0  0  0  0
 13 14  2  0  0  0  0
 14 15  1  0  0  0  0
 15 16  1  0  0  0  0
 16 17  1  0  0  0  0
 17 18  1  0  0  0  0
 18 19  1  0  0  0  0
 19 20  1  0  0  0  0
 20 21  1  0  0  0  0
 21 22  1  0  0  0  0
 22 23  1  0  0  0  0
 23 24  1  0  0  0  0
 24 25  1  0  0  0  0
 25 26  1  0  0  0  0
 14 27  1  0  0  0  0
 27 28  2  0  0  0  0
 11 28  1  0  0  0  0
  8 29  1  0  0  0  0
 29 30  2  0  0  0  0
  5 30  1  0  0  0  0
  4 31  1  0  0  0  0
  1 31  1  0  0  0  0
  1 32  1  0  0  0  0
  1 33  1  0  0  0  0
  2 34  1  0  0  0  0
  2 35  1  0  0  0  0
  3 36  1  0  0  0  0
  3 37  1  0  0  0  0
  6 38  1  0  0  0  0
  7 39  1  0  0  0  0
 12 40  1  0  0  0  0
 13 41  1  0  0  0  0
 16 42  1  0  0  0  0
 16 43  1  0  0  0  0
 17 44  1  0  0  0  0
 17 45  1  0  0  0  0
 18 46  1  0  0  0  0
 18 47  1  0  0  0  0
 19 48  1  0  0  0  0
 19 49  1  0  0  0  0
 20 50  1  0  0  0  0
 20 51  1  0  0  0  0
 21 52  1  0  0  0  0
 21 53  1  0  0  0  0
 22 54  1  0  0  0  0
 22 55  1  0  0  0  0
 23 56  1  0  0  0  0
 23 57  1  0  0  0  0
 24 58  1  0  0  0  0
 24 59  1  0  0  0  0
 25 60  1  0  0  0  0
 25 61  1  0  0  0  0
 26 62  1  0  0  0  0
 27 63  1  0  0  0  0
 28 64  1  0  0  0  0
 29 65  1  0  0  0  0
 30 66  1  0  0  0  0
 31 67  1  0  0  0  0
 31 68  1  0  0  0  0
M  END
$$$$
