@<TRIPOS>MOLECULE
C27H37NOS2
 68 70 0 0 0
SMALL
GASTEIGER
****

@<TRIPOS>ATOM
      1 C          11.6777    0.1152   -1.1148 C.3     1  UNL1       -0.0358
      2 C          10.2275    0.4251   -1.5297 C.3     1  UNL1        0.0122
      3 N           9.3642   -0.5814   -0.8745 N.pl3   1  UNL1       -0.3299
      4 C           8.1361   -0.0322   -0.5245 C.ar    1  UNL1        0.0297
      5 C           8.0873    1.1147    0.2639 C.ar    1  UNL1       -0.0400
      6 C           6.8777    1.6586    0.6113 C.ar    1  UNL1       -0.0492
      7 C           5.6918    1.0605    0.1725 C.ar    1  UNL1        0.0224
      8 C           4.3890    1.6431    0.5437 C.2     1  UNL1        0.1931
      9 C           3.1797    0.8002    0.5500 C.ar    1  UNL1        0.0223
     10 C           3.2928   -0.5872    0.6919 C.ar    1  UNL1       -0.0499
     11 C           2.1705   -1.3654    0.6972 C.ar    1  UNL1       -0.0476
     12 C           0.9137   -0.7791    0.5612 C.ar    1  UNL1        0.0079
     13 S          -0.5318   -1.7867    0.5681 S.3     1  UNL1       -0.1252
     14 C          -1.8712   -0.5800    0.3667 C.3     1  UNL1       -0.0017
     15 C          -3.2164   -1.3088    0.3528 C.3     1  UNL1       -0.0437
     16 C          -4.3461   -0.2911    0.1829 C.3     1  UNL1       -0.0523
     17 C          -5.6913   -1.0199    0.1690 C.3     1  UNL1       -0.0530
     18 C          -6.8210   -0.0022   -0.0009 C.3     1  UNL1       -0.0531
     19 C          -8.1662   -0.7310   -0.0148 C.3     1  UNL1       -0.0531
     20 C          -9.2959    0.2867   -0.1847 C.3     1  UNL1       -0.0530
     21 C         -10.6411   -0.4421   -0.1986 C.3     1  UNL1       -0.0523
     22 C         -11.7708    0.5757   -0.3685 C.3     1  UNL1       -0.0442
     23 C         -13.1160   -0.1532   -0.3823 C.3     1  UNL1       -0.0093
     24 S         -14.4554    1.0535   -0.5838 S.3     1  UNL1       -0.1783
     25 C           0.7977    0.6023    0.4203 C.ar    1  UNL1       -0.0476
     26 C           1.9158    1.3865    0.4199 C.ar    1  UNL1       -0.0499
     27 O           4.3123    2.8193    0.8449 O.2     1  UNL1       -0.2867
     28 C           5.7445   -0.0912   -0.6197 C.ar    1  UNL1       -0.0492
     29 C           6.9575   -0.6269   -0.9678 C.ar    1  UNL1       -0.0400
     30 C          10.1087   -1.0311    0.3295 C.3     1  UNL1        0.0122
     31 C          11.5751   -1.1010   -0.1660 C.3     1  UNL1       -0.0358
     32 H          12.2759   -0.1374   -1.9903 H       1  UNL1        0.0281
     33 H          12.1120    0.9673   -0.5919 H       1  UNL1        0.0281
     34 H           9.9513    1.4252   -1.1955 H       1  UNL1        0.0464
     35 H          10.1273    0.3517   -2.6126 H       1  UNL1        0.0464
     36 H           9.0033    1.5760    0.6023 H       1  UNL1        0.0636
     37 H           6.8405    2.5477    1.2233 H       1  UNL1        0.0625
     38 H           4.2667   -1.0423    0.7966 H       1  UNL1        0.0625
     39 H           2.2572   -2.4364    0.8067 H       1  UNL1        0.0629
     40 H          -1.8501    0.1280    1.1952 H       1  UNL1        0.0380
     41 H          -1.7388   -0.0437   -0.5730 H       1  UNL1        0.0380
     42 H          -3.2375   -2.0168   -0.4757 H       1  UNL1        0.0273
     43 H          -3.3488   -1.8451    1.2924 H       1  UNL1        0.0273
     44 H          -4.3250    0.4169    1.0114 H       1  UNL1        0.0266
     45 H          -4.2137    0.2452   -0.7568 H       1  UNL1        0.0266
     46 H          -5.7124   -1.7279   -0.6595 H       1  UNL1        0.0265
     47 H          -5.8237   -1.5562    1.1087 H       1  UNL1        0.0265
     48 H          -6.7999    0.7058    0.8276 H       1  UNL1        0.0265
     49 H          -6.6886    0.5341   -0.9405 H       1  UNL1        0.0265
     50 H          -8.1873   -1.4390   -0.8433 H       1  UNL1        0.0265
     51 H          -8.2986   -1.2673    0.9249 H       1  UNL1        0.0265
     52 H          -9.2748    0.9947    0.6438 H       1  UNL1        0.0265
     53 H          -9.1635    0.8230   -1.1243 H       1  UNL1        0.0265
     54 H         -10.6622   -1.1501   -1.0271 H       1  UNL1        0.0266
     55 H         -10.7735   -0.9784    0.7411 H       1  UNL1        0.0266
     56 H         -11.7497    1.2836    0.4601 H       1  UNL1        0.0273
     57 H         -11.6384    1.1119   -1.3081 H       1  UNL1        0.0273
     58 H         -13.1371   -0.8611   -1.2108 H       1  UNL1        0.0374
     59 H         -13.2484   -0.6895    0.5573 H       1  UNL1        0.0374
     60 H         -15.5588    0.2844   -0.5785 H       1  UNL1        0.1016
     61 H          -0.1778    1.0538    0.3154 H       1  UNL1        0.0629
     62 H           1.8252    2.4572    0.3110 H       1  UNL1        0.0625
     63 H           4.8307   -0.5554   -0.9601 H       1  UNL1        0.0625
     64 H           6.9989   -1.5159   -1.5797 H       1  UNL1        0.0636
     65 H          10.0096   -0.3053    1.1366 H       1  UNL1        0.0464
     66 H           9.7638   -2.0141    0.6502 H       1  UNL1        0.0464
     67 H          11.7552   -2.0294   -0.7080 H       1  UNL1        0.0281
     68 H          12.2693   -0.9992    0.6681 H       1  UNL1        0.0281
@<TRIPOS>BOND
     1     1     2    1
     2     2     3    1
     3     3     4    1
     4     4     5   ar
     5     5     6   ar
     6     6     7   ar
     7     7     8    1
     8     8     9    1
     9     9    10   ar
    10    10    11   ar
    11    11    12   ar
    12    12    13    1
    13    13    14    1
    14    14    15    1
    15    15    16    1
    16    16    17    1
    17    17    18    1
    18    18    19    1
    19    19    20    1
    20    20    21    1
    21    21    22    1
    22    22    23    1
    23    23    24    1
    24    12    25   ar
    25    25    26   ar
    26     9    26   ar
    27     8    27    2
    28     7    28   ar
    29    28    29   ar
    30     4    29   ar
    31     3    30    1
    32    30    31    1
    33     1    31    1
    34     1    32    1
    35     1    33    1
    36     2    34    1
    37     2    35    1
    38     5    36    1
    39     6    37    1
    40    10    38    1
    41    11    39    1
    42    14    40    1
    43    14    41    1
    44    15    42    1
    45    15    43    1
    46    16    44    1
    47    16    45    1
    48    17    46    1
    49    17    47    1
    50    18    48    1
    51    18    49    1
    52    19    50    1
    53    19    51    1
    54    20    52    1
    55    20    53    1
    56    21    54    1
    57    21    55    1
    58    22    56    1
    59    22    57    1
    60    23    58    1
    61    23    59    1
    62    24    60    1
    63    25    61    1
    64    26    62    1
    65    28    63    1
    66    29    64    1
    67    30    65    1
    68    30    66    1
    69    31    67    1
    70    31    68    1
