@<TRIPOS>MOLECULE
struct_file/slab_replicate/ZnS.slab.box.bgf
 20 0 0 0 0
SMALL
GASTEIGER

@<TRIPOS>ATOM
      1 ZN          0.0000    0.0000    0.0000 Zn      1  UNL1        0.0000
      2 ZN          0.0000    0.0000    9.4401 Zn      2  UNL2        0.0000
      3 ZN          2.2251    0.0000    3.1467 Zn      3  UNL3        0.0000
      4 ZN          2.2251    0.0000   12.5869 Zn      4  UNL4        0.0000
      5 ZN          4.4501    0.0000    6.2934 Zn      5  UNL5        0.0000
      6 ZN          5.5627    1.9270    3.1467 Zn      6  UNL6        0.0000
      7 ZN          5.5627    1.9270   12.5869 Zn      7  UNL7        0.0000
      8 ZN          1.1125    1.9270    6.2934 Zn      8  UNL8        0.0000
      9 ZN          3.3376    1.9270    0.0000 Zn      9  UNL9        0.0000
     10 ZN          3.3376    1.9270    9.4401 Zn     10  UNL10       0.0000
     11 S           4.4501    0.0000    3.9334 S.3    11  UNL11       0.0000
     12 S           4.4501    0.0000   13.3735 S.3    12  UNL12       0.0000
     13 S           0.0000    0.0000    7.0801 S.3    13  UNL13       0.0000
     14 S           2.2251    0.0000    0.7867 S.3    14  UNL14       0.0000
     15 S           2.2251    0.0000   10.2268 S.3    15  UNL15       0.0000
     16 S           1.1125    1.9270    3.9334 S.3    16  UNL16       0.0000
     17 S           1.1125    1.9270   13.3735 S.3    17  UNL17       0.0000
     18 S           3.3376    1.9270    7.0801 S.3    18  UNL18       0.0000
     19 S           5.5627    1.9270    0.7867 S.3    19  UNL19       0.0000
     20 S           5.5627    1.9270   10.2268 S.3    20  UNL20       0.0000
@<TRIPOS>BOND
