@<TRIPOS>MOLECULE
C40H44N2O4S2
 92 97 0 0 0
SMALL
GASTEIGER
****

@<TRIPOS>ATOM
      1 C          14.1380    4.3077   -0.7402 C.3     1  UNL1       -0.0358
      2 C          13.6117    3.9189   -2.1371 C.3     1  UNL1       -0.0358
      3 C          12.2133    3.3153   -1.8853 C.3     1  UNL1        0.0122
      4 N          11.7803    3.9011   -0.5906 N.pl3   1  UNL1       -0.3299
      5 C          10.7871    3.1276   -0.0012 C.ar    1  UNL1        0.0297
      6 C          10.7327    3.0051    1.3850 C.ar    1  UNL1       -0.0400
      7 C           9.7541    2.2434    1.9695 C.ar    1  UNL1       -0.0492
      8 C           8.8096    1.5888    1.1720 C.ar    1  UNL1        0.0224
      9 C           7.7554    0.7690    1.7973 C.2     1  UNL1        0.1931
     10 O           7.4360    0.9680    2.9542 O.2     1  UNL1       -0.2867
     11 C           7.0885   -0.2916    1.0206 C.ar    1  UNL1        0.0223
     12 C           7.7234   -0.8479   -0.0954 C.ar    1  UNL1       -0.0499
     13 C           7.1031   -1.8308   -0.8126 C.ar    1  UNL1       -0.0476
     14 C           5.8392   -2.2794   -0.4344 C.ar    1  UNL1        0.0080
     15 S           5.0421   -3.5472   -1.3628 S.3     1  UNL1       -0.1229
     16 C           3.4679   -3.7651   -0.4881 C.3     1  UNL1        0.0218
     17 C           2.6446   -4.8516   -1.1828 C.3     1  UNL1        0.0571
     18 O           1.4045   -5.0233   -0.4937 O.3     1  UNL1       -0.3767
     19 C           0.5556   -6.0209   -1.0647 C.3     1  UNL1        0.0710
     20 C          -0.7361   -6.1183   -0.2505 C.3     1  UNL1        0.0710
     21 O          -1.4635   -4.8935   -0.3629 O.3     1  UNL1       -0.3767
     22 C          -2.6934   -4.8790    0.3646 C.3     1  UNL1        0.0571
     23 C          -3.3834   -3.5269    0.1730 C.3     1  UNL1        0.0218
     24 S          -4.9446   -3.5086    1.0965 S.3     1  UNL1       -0.1229
     25 C          -5.5845   -1.9015    0.7613 C.ar    1  UNL1        0.0080
     26 C          -6.8025   -1.5091    1.3130 C.ar    1  UNL1       -0.0476
     27 C          -7.3009   -0.2639    1.0554 C.ar    1  UNL1       -0.0499
     28 C          -6.5872    0.6181    0.2365 C.ar    1  UNL1        0.0223
     29 C          -7.1221    1.9629   -0.0431 C.2     1  UNL1        0.1931
     30 O          -6.3653    2.8707   -0.3319 O.2     1  UNL1       -0.2867
     31 C          -8.5745    2.2080    0.0271 C.ar    1  UNL1        0.0224
     32 C          -9.0591    3.5122    0.1717 C.ar    1  UNL1       -0.0492
     33 C         -10.4101    3.7366    0.2367 C.ar    1  UNL1       -0.0400
     34 C         -11.2995    2.6679    0.1590 C.ar    1  UNL1        0.0297
     35 N         -12.6687    2.8989    0.2252 N.pl3   1  UNL1       -0.3299
     36 C         -13.0260    4.1562   -0.4571 C.3     1  UNL1        0.0122
     37 C         -14.0695    3.8084   -1.5394 C.3     1  UNL1       -0.0358
     38 C         -14.6659    2.4690   -1.0324 C.3     1  UNL1       -0.0358
     39 C         -13.4236    1.7926   -0.4008 C.3     1  UNL1        0.0122
     40 C         -10.8205    1.3683    0.0145 C.ar    1  UNL1       -0.0400
     41 C          -9.4709    1.1374   -0.0565 C.ar    1  UNL1       -0.0492
     42 C          -5.3645    0.2211   -0.3160 C.ar    1  UNL1       -0.0499
     43 C          -4.8688   -1.0235   -0.0503 C.ar    1  UNL1       -0.0476
     44 C           5.2045   -1.7277    0.6767 C.ar    1  UNL1       -0.0476
     45 C           5.8218   -0.7483    1.4012 C.ar    1  UNL1       -0.0499
     46 C           8.8671    1.7139   -0.2200 C.ar    1  UNL1       -0.0492
     47 C           9.8452    2.4815   -0.7979 C.ar    1  UNL1       -0.0400
     48 C          13.0133    3.9062    0.2382 C.3     1  UNL1        0.0122
     49 H          15.0513    3.7578   -0.5131 H       1  UNL1        0.0281
     50 H          14.3189    5.3813   -0.6890 H       1  UNL1        0.0281
     51 H          13.5343    4.8017   -2.7717 H       1  UNL1        0.0281
     52 H          14.2668    3.1782   -2.5958 H       1  UNL1        0.0281
     53 H          11.5263    3.6026   -2.6813 H       1  UNL1        0.0464
     54 H          12.2759    2.2297   -1.8094 H       1  UNL1        0.0464
     55 H          11.4625    3.5105    2.0001 H       1  UNL1        0.0636
     56 H           9.7128    2.1486    3.0446 H       1  UNL1        0.0625
     57 H           8.7027   -0.5002   -0.3894 H       1  UNL1        0.0625
     58 H           7.5926   -2.2606   -1.6741 H       1  UNL1        0.0629
     59 H           3.6630   -4.0605    0.5428 H       1  UNL1        0.0402
     60 H           2.9135   -2.8267   -0.4985 H       1  UNL1        0.0402
     61 H           2.4496   -4.5563   -2.2137 H       1  UNL1        0.0568
     62 H           3.1990   -5.7900   -1.1724 H       1  UNL1        0.0568
     63 H           0.3172   -5.7499   -2.0932 H       1  UNL1        0.0583
     64 H           1.0667   -6.9836   -1.0518 H       1  UNL1        0.0583
     65 H          -1.3446   -6.9386   -0.6312 H       1  UNL1        0.0583
     66 H          -0.4929   -6.3017    0.7961 H       1  UNL1        0.0583
     67 H          -3.3425   -5.6736   -0.0034 H       1  UNL1        0.0568
     68 H          -2.4908   -5.0367    1.4239 H       1  UNL1        0.0568
     69 H          -2.7342   -2.7324    0.5410 H       1  UNL1        0.0402
     70 H          -3.5860   -3.3692   -0.8863 H       1  UNL1        0.0402
     71 H          -7.3530   -2.1905    1.9447 H       1  UNL1        0.0629
     72 H          -8.2451    0.0395    1.4830 H       1  UNL1        0.0625
     73 H          -8.3699    4.3415    0.2324 H       1  UNL1        0.0625
     74 H         -10.7849    4.7432    0.3487 H       1  UNL1        0.0636
     75 H         -13.4540    4.8579    0.2588 H       1  UNL1        0.0464
     76 H         -12.1407    4.5906   -0.9215 H       1  UNL1        0.0464
     77 H         -14.8401    4.5775   -1.5931 H       1  UNL1        0.0281
     78 H         -13.5894    3.6741   -2.5087 H       1  UNL1        0.0281
     79 H         -15.4382    2.6441   -0.2834 H       1  UNL1        0.0281
     80 H         -15.0545    1.8762   -1.8605 H       1  UNL1        0.0281
     81 H         -12.8215    1.3104   -1.1709 H       1  UNL1        0.0464
     82 H         -13.7288    1.0671    0.3532 H       1  UNL1        0.0464
     83 H         -11.5130    0.5418   -0.0458 H       1  UNL1        0.0636
     84 H          -9.1000    0.1294   -0.1689 H       1  UNL1        0.0625
     85 H          -4.8113    0.8996   -0.9484 H       1  UNL1        0.0625
     86 H          -3.9251   -1.3306   -0.4764 H       1  UNL1        0.0629
     87 H           4.2251   -2.0777    0.9675 H       1  UNL1        0.0629
     88 H           5.3295   -0.3213    2.2625 H       1  UNL1        0.0625
     89 H           8.1394    1.2098   -0.8387 H       1  UNL1        0.0625
     90 H           9.8899    2.5789   -1.8725 H       1  UNL1        0.0636
     91 H          13.2010    2.9132    0.6464 H       1  UNL1        0.0464
     92 H          12.9285    4.6385    1.0411 H       1  UNL1        0.0464
@<TRIPOS>BOND
     1     1     2    1
     2     2     3    1
     3     3     4    1
     4     4     5    1
     5     5     6   ar
     6     6     7   ar
     7     7     8   ar
     8     8     9    1
     9     9    10    2
    10     9    11    1
    11    11    12   ar
    12    12    13   ar
    13    13    14   ar
    14    14    15    1
    15    15    16    1
    16    16    17    1
    17    17    18    1
    18    18    19    1
    19    19    20    1
    20    20    21    1
    21    21    22    1
    22    22    23    1
    23    23    24    1
    24    24    25    1
    25    25    26   ar
    26    26    27   ar
    27    27    28   ar
    28    28    29    1
    29    29    30    2
    30    29    31    1
    31    31    32   ar
    32    32    33   ar
    33    33    34   ar
    34    34    35    1
    35    35    36    1
    36    36    37    1
    37    37    38    1
    38    38    39    1
    39    35    39    1
    40    34    40   ar
    41    40    41   ar
    42    31    41   ar
    43    28    42   ar
    44    42    43   ar
    45    25    43   ar
    46    14    44   ar
    47    44    45   ar
    48    11    45   ar
    49     8    46   ar
    50    46    47   ar
    51     5    47   ar
    52     4    48    1
    53     1    48    1
    54     1    49    1
    55     1    50    1
    56     2    51    1
    57     2    52    1
    58     3    53    1
    59     3    54    1
    60     6    55    1
    61     7    56    1
    62    12    57    1
    63    13    58    1
    64    16    59    1
    65    16    60    1
    66    17    61    1
    67    17    62    1
    68    19    63    1
    69    19    64    1
    70    20    65    1
    71    20    66    1
    72    22    67    1
    73    22    68    1
    74    23    69    1
    75    23    70    1
    76    26    71    1
    77    27    72    1
    78    32    73    1
    79    33    74    1
    80    36    75    1
    81    36    76    1
    82    37    77    1
    83    37    78    1
    84    38    79    1
    85    38    80    1
    86    39    81    1
    87    39    82    1
    88    40    83    1
    89    41    84    1
    90    42    85    1
    91    43    86    1
    92    44    87    1
    93    45    88    1
    94    46    89    1
    95    47    90    1
    96    48    91    1
    97    48    92    1
