@<TRIPOS>MOLECULE
5282759
 54 53 0 0 0
SMALL
GASTEIGER

@<TRIPOS>ATOM
      1 O          -5.3510   -1.2971   -0.2070 O.3     1  UNL1       -0.4806
      2 O          -3.9834   -1.7958   -1.9490 O.2     1  UNL1       -0.2510
      3 C           1.8668   -2.4705    1.3515 C.3     1  UNL1       -0.0530
      4 C           3.2510   -2.8338    0.8025 C.3     1  UNL1       -0.0528
      5 C           0.7991   -2.3391    0.2626 C.3     1  UNL1       -0.0530
      6 C           3.8939   -1.7959   -0.1230 C.3     1  UNL1       -0.0496
      7 C          -0.5973   -2.0335    0.8150 C.3     1  UNL1       -0.0526
      8 C           0.3389    2.4667   -0.3937 C.3     1  UNL1       -0.0528
      9 C          -0.2189    3.5217    0.5650 C.3     1  UNL1       -0.0531
     10 C           1.8716    2.4505   -0.3679 C.3     1  UNL1       -0.0496
     11 C           4.0546   -0.4183    0.5245 C.3     1  UNL1       -0.0348
     12 C          -1.6780   -1.9774   -0.2704 C.3     1  UNL1       -0.0430
     13 C          -1.7462    3.6297    0.5282 C.3     1  UNL1       -0.0533
     14 C           2.4755    1.3872   -1.2914 C.3     1  UNL1       -0.0348
     15 C           4.6799    0.5544   -0.4333 C.2     1  UNL1       -0.0879
     16 C          -2.4574    2.3508    0.9728 C.3     1  UNL1       -0.0559
     17 C           3.9756    1.3592   -1.2426 C.2     1  UNL1       -0.0879
     18 C          -3.0603   -1.6576    0.3014 C.3     1  UNL1        0.0448
     19 C          -3.9692    2.5056    0.9064 C.3     1  UNL1       -0.0653
     20 C          -4.1451   -1.6068   -0.7515 C.2     1  UNL1        0.3047
     21 H           1.9134   -1.5522    1.9463 H       1  UNL1        0.0265
     22 H           1.5611   -3.2638    2.0456 H       1  UNL1        0.0265
     23 H           3.9221   -3.0044    1.6539 H       1  UNL1        0.0265
     24 H           3.1860   -3.7888    0.2666 H       1  UNL1        0.0265
     25 H           0.7590   -3.2727   -0.3123 H       1  UNL1        0.0265
     26 H           1.0739   -1.5477   -0.4407 H       1  UNL1        0.0265
     27 H           3.3060   -1.7179   -1.0452 H       1  UNL1        0.0268
     28 H           4.8806   -2.1712   -0.4249 H       1  UNL1        0.0268
     29 H          -0.8692   -2.7999    1.5512 H       1  UNL1        0.0265
     30 H          -0.5692   -1.0753    1.3486 H       1  UNL1        0.0265
     31 H          -0.0092    2.6697   -1.4133 H       1  UNL1        0.0265
     32 H          -0.0229    1.4708   -0.1162 H       1  UNL1        0.0265
     33 H           0.2024    4.5015    0.3083 H       1  UNL1        0.0265
     34 H           0.1044    3.2967    1.5887 H       1  UNL1        0.0265
     35 H           2.2486    3.4396   -0.6587 H       1  UNL1        0.0268
     36 H           2.2090    2.2767    0.6618 H       1  UNL1        0.0268
     37 H           4.7012   -0.4981    1.4071 H       1  UNL1        0.0307
     38 H           3.0984   -0.0367    0.8927 H       1  UNL1        0.0307
     39 H          -1.4074   -1.2185   -1.0153 H       1  UNL1        0.0270
     40 H          -1.7137   -2.9370   -0.8011 H       1  UNL1        0.0270
     41 H          -2.0644    3.8942   -0.4878 H       1  UNL1        0.0265
     42 H          -2.0523    4.4572    1.1800 H       1  UNL1        0.0265
     43 H           2.0469    0.4078   -1.0633 H       1  UNL1        0.0307
     44 H           2.1768    1.5966   -2.3265 H       1  UNL1        0.0307
     45 H           5.7653    0.5929   -0.4697 H       1  UNL1        0.0569
     46 H          -2.1741    1.5136    0.3280 H       1  UNL1        0.0263
     47 H          -2.1603    2.0935    1.9957 H       1  UNL1        0.0263
     48 H           4.5097    2.0415   -1.8984 H       1  UNL1        0.0569
     49 H          -3.0341   -0.6892    0.8103 H       1  UNL1        0.0377
     50 H          -3.3393   -2.4276    1.0297 H       1  UNL1        0.0377
     51 H          -4.2970    2.7231   -0.1152 H       1  UNL1        0.0230
     52 H          -4.3093    3.3173    1.5575 H       1  UNL1        0.0230
     53 H          -4.4597    1.5824    1.2306 H       1  UNL1        0.0230
     54 H          -6.0576   -1.2517   -0.8860 H       1  UNL1        0.2951
@<TRIPOS>BOND
     1     1    20    1
     2     1    54    1
     3     2    20    2
     4     3     4    1
     5     3     5    1
     6     3    21    1
     7     3    22    1
     8     4     6    1
     9     4    23    1
    10     4    24    1
    11     5     7    1
    12     5    25    1
    13     5    26    1
    14     6    11    1
    15     6    27    1
    16     6    28    1
    17     7    12    1
    18     7    29    1
    19     7    30    1
    20     8     9    1
    21     8    10    1
    22     8    31    1
    23     8    32    1
    24     9    13    1
    25     9    33    1
    26     9    34    1
    27    10    14    1
    28    10    35    1
    29    10    36    1
    30    11    15    1
    31    11    37    1
    32    11    38    1
    33    12    18    1
    34    12    39    1
    35    12    40    1
    36    13    16    1
    37    13    41    1
    38    13    42    1
    39    14    17    1
    40    14    43    1
    41    14    44    1
    42    15    17    2
    43    15    45    1
    44    16    19    1
    45    16    46    1
    46    16    47    1
    47    17    48    1
    48    18    20    1
    49    18    49    1
    50    18    50    1
    51    19    51    1
    52    19    52    1
    53    19    53    1
