@<TRIPOS>MOLECULE
*****
 54 53 0 0 0
SMALL
GASTEIGER

@<TRIPOS>ATOM
      1 O           0.1168   -5.5373    7.4572 O.3     1  UNL11      -0.4806
      2 O          -0.6948   -5.6045    5.3382 O.2     1  UNL11      -0.2510
      3 C           4.6133   -3.0978    2.0044 C.3     1  UNL11      -0.0530
      4 C           4.7910   -2.8708    0.4990 C.3     1  UNL11      -0.0528
      5 C           3.2225   -3.6163    2.3784 C.3     1  UNL11      -0.0530
      6 C           6.2386   -2.7981    0.0027 C.3     1  UNL11      -0.0496
      7 C           3.0623   -3.8991    3.8760 C.3     1  UNL11      -0.0526
      8 C           8.1186   -2.0863   -5.8836 C.3     1  UNL11      -0.0528
      9 C           8.5067   -3.1483   -6.9155 C.3     1  UNL11      -0.0531
     10 C           6.8210   -2.4653   -5.1606 C.3     1  UNL11      -0.0496
     11 C           6.3742   -2.9844   -1.5105 C.3     1  UNL11      -0.0348
     12 C           1.6946   -4.4894    4.2369 C.3     1  UNL11      -0.0430
     13 C           9.7601   -2.7867   -7.7180 C.3     1  UNL11      -0.0533
     14 C           6.4085   -1.4445   -4.0948 C.3     1  UNL11      -0.0348
     15 C           5.1355   -2.5201   -2.2208 C.2     1  UNL11      -0.0879
     16 C          11.0192   -2.6663   -6.8582 C.3     1  UNL11      -0.0559
     17 C           5.1512   -1.8337   -3.3729 C.2     1  UNL11      -0.0879
     18 C           1.5518   -4.7506    5.7374 C.3     1  UNL11       0.0448
     19 C          12.2310   -2.2943   -7.6991 C.3     1  UNL11      -0.0653
     20 C           0.2123   -5.3428    6.1157 C.2     1  UNL11       0.3047
     21 H           4.8379   -2.1839    2.5644 H       1  UNL11       0.0265
     22 H           5.3586   -3.8375    2.3237 H       1  UNL11       0.0265
     23 H           4.2813   -3.6850   -0.0317 H       1  UNL11       0.0265
     24 H           4.2750   -1.9465    0.2113 H       1  UNL11       0.0265
     25 H           3.0227   -4.5379    1.8178 H       1  UNL11       0.0265
     26 H           2.4581   -2.8935    2.0790 H       1  UNL11       0.0265
     27 H           6.8427   -3.5427    0.5345 H       1  UNL11       0.0268
     28 H           6.6484   -1.8194    0.2850 H       1  UNL11       0.0268
     29 H           3.8478   -4.5940    4.1975 H       1  UNL11       0.0265
     30 H           3.2137   -2.9670    4.4344 H       1  UNL11       0.0265
     31 H           7.9937   -1.1157   -6.3778 H       1  UNL11       0.0265
     32 H           8.9115   -1.9738   -5.1363 H       1  UNL11       0.0265
     33 H           7.6761   -3.2894   -7.6181 H       1  UNL11       0.0265
     34 H           8.6628   -4.1106   -6.4128 H       1  UNL11       0.0265
     35 H           6.0132   -2.5670   -5.8969 H       1  UNL11       0.0268
     36 H           6.9470   -3.4511   -4.6952 H       1  UNL11       0.0268
     37 H           6.5264   -4.0463   -1.7398 H       1  UNL11       0.0307
     38 H           7.2573   -2.4692   -1.8982 H       1  UNL11       0.0307
     39 H           0.9036   -3.8029    3.9097 H       1  UNL11       0.0270
     40 H           1.5432   -5.4258    3.6856 H       1  UNL11       0.0270
     41 H           9.5867   -1.8440   -8.2517 H       1  UNL11       0.0265
     42 H           9.9182   -3.5574   -8.4824 H       1  UNL11       0.0265
     43 H           7.2355   -1.2751   -3.4002 H       1  UNL11       0.0307
     44 H           6.2336   -0.4729   -4.5743 H       1  UNL11       0.0307
     45 H           4.1786   -2.7520   -1.7609 H       1  UNL11       0.0569
     46 H          10.8867   -1.8940   -6.0948 H       1  UNL11       0.0263
     47 H          11.2101   -3.6125   -6.3394 H       1  UNL11       0.0263
     48 H           4.2059   -1.5454   -3.8247 H       1  UNL11       0.0569
     49 H           1.6778   -3.8138    6.2887 H       1  UNL11       0.0377
     50 H           2.3290   -5.4530    6.0596 H       1  UNL11       0.0377
     51 H          12.0824   -1.3307   -8.1970 H       1  UNL11       0.0230
     52 H          12.4242   -3.0519   -8.4654 H       1  UNL11       0.0230
     53 H          13.1214   -2.2158   -7.0674 H       1  UNL11       0.0230
     54 H          -0.7539   -5.9112    7.7111 H       1  UNL11       0.2951
@<TRIPOS>BOND
     1     1    20    1
     2     1    54    1
     3     2    20    2
     4     3     4    1
     5     3     5    1
     6     3    21    1
     7     3    22    1
     8     4     6    1
     9     4    23    1
    10     4    24    1
    11     5     7    1
    12     5    25    1
    13     5    26    1
    14     6    11    1
    15     6    27    1
    16     6    28    1
    17     7    12    1
    18     7    29    1
    19     7    30    1
    20     8     9    1
    21     8    10    1
    22     8    31    1
    23     8    32    1
    24     9    13    1
    25     9    33    1
    26     9    34    1
    27    10    14    1
    28    10    35    1
    29    10    36    1
    30    11    15    1
    31    11    37    1
    32    11    38    1
    33    12    18    1
    34    12    39    1
    35    12    40    1
    36    13    16    1
    37    13    41    1
    38    13    42    1
    39    14    17    1
    40    14    43    1
    41    14    44    1
    42    15    17    2
    43    15    45    1
    44    16    19    1
    45    16    46    1
    46    16    47    1
    47    17    48    1
    48    18    20    1
    49    18    49    1
    50    18    50    1
    51    19    51    1
    52    19    52    1
    53    19    53    1
