@<TRIPOS>MOLECULE
oleic_xligand.test.bgf
 122 123 0 0 0
SMALL
GASTEIGER

@<TRIPOS>ATOM
      1 C          23.5234   33.6561   53.9915 C.3     1  UNL1       -0.0351
      2 C          23.1577   32.3482   53.2600 C.3     1  UNL1       -0.0351
      3 C          24.4817   31.8506   52.6414 C.3     1  UNL1        0.0201
      4 N          25.5417   32.4685   53.4792 N.pl3   1  UNL1       -0.2926
      5 C          26.7533   32.5100   52.7990 C.1     1  UNL1       -0.0260
      6 C          27.6459   33.5529   53.0329 C.1     1  UNL1       -0.1014
      7 C          28.8417   33.5970   52.3638 C.1     1  UNL1       -0.1099
      8 C          29.1647   32.5926   51.4452 C.1     1  UNL1       -0.0293
      9 C          30.4501   32.6365   50.7240 C.2     1  UNL1        0.2773
     10 O          31.3868   33.2592   51.1876 O.2     1  UNL1       -0.2683
     11 C          30.6003   31.9257   49.4414 C.1     1  UNL1       -0.0294
     12 C          29.4719   31.6235   48.6711 C.1     1  UNL1       -0.1105
     13 C          29.6142   30.9649   47.4831 C.1     1  UNL1       -0.1087
     14 C          30.8814   30.5933   47.0383 C.1     1  UNL1       -0.0502
     15 S          31.0609   29.7436   45.5052 S.3     1  UNL1       -0.0756
     16 C          32.8535   29.4937   45.3845 C.3     1  UNL1        0.0058
     17 C          33.1791   28.7554   44.0845 C.3     1  UNL1       -0.0431
     18 C          34.6911   28.5447   43.9828 C.3     1  UNL1       -0.0523
     19 C          35.0167   27.8063   42.6828 C.3     1  UNL1       -0.0530
     20 C          36.5288   27.5955   42.5810 C.3     1  UNL1       -0.0531
     21 C          36.8544   26.8573   41.2811 C.3     1  UNL1       -0.0531
     22 C          38.3664   26.6465   41.1793 C.3     1  UNL1       -0.0530
     23 C          38.6920   25.9082   39.8793 C.3     1  UNL1       -0.0523
     24 C          40.2040   25.6975   39.7776 C.3     1  UNL1       -0.0442
     25 C          40.5296   24.9591   38.4776 C.3     1  UNL1       -0.0093
     26 S          42.3223   24.7092   38.3569 S.3     1  UNL1       -0.1783
     27 C          32.0072   30.8927   47.8032 C.1     1  UNL1       -0.1087
     28 C          31.8720   31.5567   48.9889 C.1     1  UNL1       -0.1105
     29 C          28.2658   31.5465   51.2126 C.1     1  UNL1       -0.1099
     30 C          27.0742   31.5055   51.8894 C.1     1  UNL1       -0.1014
     31 C          25.0378   33.8389   53.7533 C.3     1  UNL1        0.0201
     32 H          22.9698   34.4942   53.5682 H       1  UNL1        0.0281
     33 H          23.3163   33.5643   55.0577 H       1  UNL1        0.0281
     34 H          22.7709   31.6144   53.9672 H       1  UNL1        0.0281
     35 H          22.4245   32.5442   52.4776 H       1  UNL1        0.0281
     36 H          24.5411   30.7635   52.6940 H       1  UNL1        0.0471
     37 H          24.5690   32.1876   51.6085 H       1  UNL1        0.0471
     38 H          27.3957   34.3282   53.7420 H       1  UNL1        0.1243
     39 H          29.5334   34.4062   52.5453 H       1  UNL1        0.1233
     40 H          28.4894   31.9107   49.0156 H       1  UNL1        0.1233
     41 H          28.7437   30.7314   46.8881 H       1  UNL1        0.1236
     42 H          33.3563   30.4608   45.3888 H       1  UNL1        0.0386
     43 H          33.1959   28.9024   46.2336 H       1  UNL1        0.0386
     44 H          32.6764   27.7883   44.0802 H       1  UNL1        0.0273
     45 H          32.8367   29.3468   43.2353 H       1  UNL1        0.0273
     46 H          35.1940   29.5117   43.9871 H       1  UNL1        0.0266
     47 H          35.0335   27.9533   44.8320 H       1  UNL1        0.0266
     48 H          34.5139   26.8392   42.6785 H       1  UNL1        0.0265
     49 H          34.6744   28.3977   41.8335 H       1  UNL1        0.0265
     50 H          37.0316   28.5627   42.5854 H       1  UNL1        0.0265
     51 H          36.8712   27.0042   43.4302 H       1  UNL1        0.0265
     52 H          36.3516   25.8901   41.2767 H       1  UNL1        0.0265
     53 H          36.5120   27.4486   40.4319 H       1  UNL1        0.0265
     54 H          38.8691   27.6135   41.1836 H       1  UNL1        0.0265
     55 H          38.7088   26.0552   42.0285 H       1  UNL1        0.0265
     56 H          38.1892   24.9411   39.8750 H       1  UNL1        0.0266
     57 H          38.3496   26.4995   39.0301 H       1  UNL1        0.0266
     58 H          40.7067   26.6645   39.7819 H       1  UNL1        0.0273
     59 H          40.5464   25.1061   40.6268 H       1  UNL1        0.0273
     60 H          40.0268   23.9920   38.4733 H       1  UNL1        0.0374
     61 H          40.1872   25.5505   37.6284 H       1  UNL1        0.0374
     62 H          42.4592   24.0606   37.1867 H       1  UNL1        0.1016
     63 H          32.9879   30.6034   47.4557 H       1  UNL1        0.1236
     64 H          32.7448   31.7883   49.5813 H       1  UNL1        0.1233
     65 H          28.5119   30.7697   50.5038 H       1  UNL1        0.1233
     66 H          26.3796   30.6980   51.7104 H       1  UNL1        0.1243
     67 H          25.2121   34.4869   52.8944 H       1  UNL1        0.0471
     68 H          25.5158   34.2488   54.6430 H       1  UNL1        0.0471
     69 O          51.6913   31.1431    9.8705 O.3     2  UNL2       -0.4806
     70 O          53.0083   29.3098    9.6294 O.2     2  UNL2       -0.2510
     71 C          57.0337   31.4450    4.6484 C.3     2  UNL2       -0.0530
     72 C          58.2032   30.7210    3.9720 C.3     2  UNL2       -0.0528
     73 C          56.3137   30.5881    5.6926 C.3     2  UNL2       -0.0530
     74 C          57.8327   29.4873    3.1425 C.3     2  UNL2       -0.0496
     75 C          55.1816   31.3300    6.4111 C.3     2  UNL2       -0.0526
     76 C          52.3007   29.0327    3.4090 C.3     2  UNL2       -0.0528
     77 C          51.0874   29.8373    2.9361 C.3     2  UNL2       -0.0531
     78 C          53.2664   28.7555    2.2511 C.3     2  UNL2       -0.0496
     79 C          56.8282   29.7827    2.0261 C.3     2  UNL2       -0.0348
     80 C          54.5123   30.4949    7.5083 C.3     2  UNL2       -0.0430
     81 C          50.0538   30.0835    4.0392 C.3     2  UNL2       -0.0533
     82 C          54.5134   27.9771    2.6839 C.3     2  UNL2       -0.0348
     83 C          56.4991   28.5355    1.2575 C.2     2  UNL2       -0.0879
     84 C          50.5909   30.9218    5.2001 C.3     2  UNL2       -0.0559
     85 C          55.4670   27.7308    1.5510 C.2     2  UNL2       -0.0879
     86 C          53.3769   31.2496    8.2022 C.3     2  UNL2        0.0448
     87 C          49.5317   31.1267    6.2725 C.3     2  UNL2       -0.0653
     88 C          52.7078   30.4476    9.2963 C.2     2  UNL2        0.3047
     89 H          56.3192   31.8100    3.9030 H       2  UNL2        0.0265
     90 H          57.4330   32.3382    5.1456 H       2  UNL2        0.0265
     91 H          58.7172   31.4380    3.3193 H       2  UNL2        0.0265
     92 H          58.9323   30.4238    4.7359 H       2  UNL2        0.0265
     93 H          57.0433   30.2440    6.4363 H       2  UNL2        0.0265
     94 H          55.8971   29.6926    5.2224 H       2  UNL2        0.0265
     95 H          57.4460   28.7056    3.8070 H       2  UNL2        0.0268
     96 H          58.7534   29.0815    2.7029 H       2  UNL2        0.0268
     97 H          55.5791   32.2510    6.8549 H       2  UNL2        0.0265
     98 H          54.4271   31.6317    5.6739 H       2  UNL2        0.0265
     99 H          51.9698   28.0835    3.8466 H       2  UNL2        0.0265
    100 H          52.8416   29.5815    4.1875 H       2  UNL2        0.0265
    101 H          50.5952   29.3000    2.1161 H       2  UNL2        0.0265
    102 H          51.4198   30.8000    2.5290 H       2  UNL2        0.0265
    103 H          52.7409   28.1924    1.4690 H       2  UNL2        0.0268
    104 H          53.5674   29.7102    1.8016 H       2  UNL2        0.0268
    105 H          57.2546   30.5152    1.3296 H       2  UNL2        0.0307
    106 H          55.9187   30.2445    2.4198 H       2  UNL2        0.0307
    107 H          54.1202   29.5674    7.0724 H       2  UNL2        0.0270
    108 H          55.2629   30.1978    8.2512 H       2  UNL2        0.0270
    109 H          49.6932   29.1188    4.4171 H       2  UNL2        0.0265
    110 H          49.1882   30.5926    3.5977 H       2  UNL2        0.0265
    111 H          55.0019   28.4884    3.5175 H       2  UNL2        0.0307
    112 H          54.2089   27.0019    3.0848 H       2  UNL2        0.0307
    113 H          57.1463   28.2762    0.4239 H       2  UNL2        0.0569
    114 H          51.4496   30.4260    5.6626 H       2  UNL2        0.0263
    115 H          50.9324   31.8958    4.8320 H       2  UNL2        0.0263
    116 H          55.2950   26.8523    0.9350 H       2  UNL2        0.0569
    117 H          52.6144   31.5259    7.4676 H       2  UNL2        0.0377
    118 H          53.7732   32.1653    8.6558 H       2  UNL2        0.0377
    119 H          49.2022   30.1684    6.6869 H       2  UNL2        0.0230
    120 H          48.6574   31.6452    5.8662 H       2  UNL2        0.0230
    121 H          49.9336   31.7303    7.0923 H       2  UNL2        0.0230
    122 H          51.2456   30.6247   10.5740 H       2  UNL2        0.2951
@<TRIPOS>BOND
     1     2     1    1
     2     2     3    1
     3     2    34    1
     4     2    35    1
     5     3     4    1
     6     3    36    1
     7     3    37    1
     8     4     5    1
     9     4    31    1
    10     5     6    2
    11     5    30    2
    12     6     7    2
    13     6    38    1
    14     7     8    2
    15     7    39    1
    16     8     9    1
    17     8    29    2
    18     9    10    2
    19     9    11    1
    20    11    12    2
    21    11    28    2
    22    12    13    2
    23    12    40    1
    24    13    14    2
    25    13    41    1
    26    14    15    1
    27    14    27    2
    28    15    16    1
    29    16    17    1
    30    16    42    1
    31    16    43    1
    32    17    18    1
    33    17    44    1
    34    17    45    1
    35    18    19    1
    36    18    46    1
    37    18    47    1
    38    19    20    1
    39    19    48    1
    40    19    49    1
    41    20    21    1
    42    20    50    1
    43    20    51    1
    44    21    22    1
    45    21    52    1
    46    21    53    1
    47    22    23    1
    48    22    54    1
    49    22    55    1
    50    23    24    1
    51    23    56    1
    52    23    57    1
    53    24    25    1
    54    24    58    1
    55    24    59    1
    56    25    26    1
    57    25    60    1
    58    25    61    1
    59    26    62    1
    60    27    28    2
    61    27    63    1
    62    28    64    1
    63    29    30    2
    64    29    65    1
    65    30    66    1
    66    31     1    1
    67    31    67    1
    68    31    68    1
    69    32     1    1
    70    33     1    1
    71    69    88    1
    72    69   122    1
    73    70    88    2
    74    71    72    1
    75    71    73    1
    76    71    89    1
    77    71    90    1
    78    72    74    1
    79    72    91    1
    80    72    92    1
    81    73    75    1
    82    73    93    1
    83    73    94    1
    84    74    79    1
    85    74    95    1
    86    74    96    1
    87    75    80    1
    88    75    97    1
    89    75    98    1
    90    76    77    1
    91    76    78    1
    92    76    99    1
    93    76   100    1
    94    77    81    1
    95    77   101    1
    96    77   102    1
    97    78    82    1
    98    78   103    1
    99    78   104    1
   100    79    83    1
   101    79   105    1
   102    79   106    1
   103    80    86    1
   104    80   107    1
   105    80   108    1
   106    81    84    1
   107    81   109    1
   108    81   110    1
   109    82    85    1
   110    82   111    1
   111    82   112    1
   112    83    85    2
   113    83   113    1
   114    84    87    1
   115    84   114    1
   116    84   115    1
   117    85   116    1
   118    86    88    1
   119    86   117    1
   120    86   118    1
   121    87   119    1
   122    87   120    1
   123    87   121    1
