@<TRIPOS>MOLECULE
ZnS_supercell.pdb
   16    20     1     0     0
SMALL
bcc


@<TRIPOS>ATOM
      1 Zn           0.0000     0.0000     0.0000 Zn         1 UNL       0.094000
      2 Zn1          1.9050     1.1000     3.1100 Zn         1 UNL       0.494333
      3 Zn2          1.9050     3.2990     0.0000 Zn         1 UNL       0.494333
      4 Zn3          3.8090     4.3990     3.1100 Zn         1 UNL       0.338333
      5 Zn4          3.8090     0.0000     0.0000 Zn         1 UNL       0.494333
      6 Zn5          5.7140     1.1000     3.1100 Zn         1 UNL       0.338333
      7 Zn6          5.7140     3.2990     0.0000 Zn         1 UNL       0.338333
      8 Zn7          7.6190     4.3990     3.1100 Zn         1 UNL       0.525000
      9 S            1.9050     1.1000     0.7780 s6         1 UNL      -0.419000
     10 S1           3.8090     2.1990     3.8880 s4         1 UNL      -0.534667
     11 S2           3.8090     4.3990     0.7780 s4         1 UNL      -0.534667
     12 S3           5.7140     5.4980     3.8880 ss         1 UNL      -0.272000
     13 S4           5.7140     1.1000     0.7780 s4         1 UNL      -0.534667
     14 S5           7.6190     2.1990     3.8880 ss         1 UNL      -0.272000
     15 S6           7.6190     4.3990     0.7780 ss         1 UNL      -0.272000
     16 S7           9.5240     5.4980     3.8880 s          1 UNL      -0.279000
@<TRIPOS>BOND
     1     1     9 1   
     2     2     9 1   
     3     2    10 1   
     4     3     9 1   
     5     3    11 1   
     6     4    11 1   
     7     4    10 1   
     8     4    12 1   
     9     5     9 1   
    10     5    13 1   
    11     6    13 1   
    12     6    10 1   
    13     6    14 1   
    14     7    11 1   
    15     7    13 1   
    16     7    15 1   
    17     8    15 1   
    18     8    12 1   
    19     8    14 1   
    20     8    16 1   
@<TRIPOS>SUBSTRUCTURE
     1 UNL         1 TEMP              0 ****  ****    0 ROOT
