@<TRIPOS>MOLECULE
ZnS_supercell.pdb
 16 20 0 0 0
SMALL
GASTEIGER

@<TRIPOS>ATOM
      1 Zn          0.0000    0.0000    0.0000 Zn      1  UNL1        0.0000
      2 Zn          1.9050    1.1000    3.1100 Zn      1  UNL1        0.0000
      3 Zn          1.9050    3.2990    0.0000 Zn      1  UNL1        0.0000
      4 Zn          3.8090    4.3990    3.1100 Zn      1  UNL1        0.0000
      5 Zn          3.8090    0.0000    0.0000 Zn      1  UNL1        0.0000
      6 Zn          5.7140    1.1000    3.1100 Zn      1  UNL1        0.0000
      7 Zn          5.7140    3.2990    0.0000 Zn      1  UNL1        0.0000
      8 Zn          7.6190    4.3990    3.1100 Zn      1  UNL1        0.0000
      9  S          1.9050    1.1000    0.7780 S.3     1  UNL1        0.0000
     10  S          3.8090    2.1990    3.8880 S.3     1  UNL1        0.0000
     11  S          3.8090    4.3990    0.7780 S.3     1  UNL1        0.0000
     12  S          5.7140    5.4980    3.8880 S.3     1  UNL1        0.0000
     13  S          5.7140    1.1000    0.7780 S.3     1  UNL1        0.0000
     14  S          7.6190    2.1990    3.8880 S.3     1  UNL1        0.0000
     15  S          7.6190    4.3990    0.7780 S.3     1  UNL1        0.0000
     16  S          9.5240    5.4980    3.8880 S.3     1  UNL1        0.0000
@<TRIPOS>BOND
     1     1     9    1F
     2     2     9    1F
     3     2    10    1F
     4     3     9    1F
     5     3    11    1F
     6     4    11    1F
     7     4    10    1F
     8     4    12    1F
     9     5     9    1F
    10     5    13    1F
    11     6    13    1F
    12     6    10    1F
    13     6    14    1F
    14     7    11    1F
    15     7    13    1F
    16     7    15    1F
    17     8    15    1F
    18     8    12    1F
    19     8    14    1F
    20     8    16    1F
