@<TRIPOS>MOLECULE
Compound
53 52 1 0 1
SMALL
NO_CHARGES
@<TRIPOS>CRYSIN
   18.7660     9.5420    21.4500    90.0000    90.0000    90.0000 1 1
@<TRIPOS>ATOM
       1 O            0.9780    -4.2400     8.0590 O             1 Compound
       2 O           -0.3410    -3.9330     6.3130 O             1 Compound
       3 C            4.3410    -3.8230     1.4470 C             1 Compound
       4 C            4.1450    -4.0060    -0.0730 C             1 Compound
       5 C            3.0100    -4.0080     2.2050 C             1 Compound
       6 C            5.4790    -3.8410    -0.8350 C             1 Compound
       7 C            3.2010    -3.8360     3.7260 C             1 Compound
       8 C            8.2660    -1.7970    -5.6360 C             1 Compound
       9 C            8.7470    -2.3620    -6.9920 C             1 Compound
      10 C            6.7980    -2.1880    -5.3630 C             1 Compound
      11 C            5.3230    -4.0970    -2.3500 C             1 Compound
      12 C            1.8700    -4.0350     4.4820 C             1 Compound
      13 C           10.1780    -1.9090    -7.3610 C             1 Compound
      14 C            6.3100    -1.6380    -4.0080 C             1 Compound
      15 C            4.4470    -3.0550    -3.0220 C             1 Compound
      16 C           11.2600    -2.5190    -6.4410 C             1 Compound
      17 C            4.8670    -2.0260    -3.7530 C             1 Compound
      18 C            2.0560    -3.8660     6.0060 C             1 Compound
      19 C           12.6740    -2.1340    -6.9130 C             1 Compound
      20 C            0.7700    -4.1000     6.7770 C             1 Compound
      21 H            4.7400    -2.8250     1.6460 H             1 Compound
      22 H            5.0720    -4.5500     1.8100 H             1 Compound
      23 H            3.7360    -5.0000    -0.2690 H             1 Compound
      24 H            3.4200    -3.2720    -0.4330 H             1 Compound
      25 H            2.6090    -5.0040     1.9990 H             1 Compound
      26 H            2.2800    -3.2780     1.8440 H             1 Compound
      27 H            6.2100    -4.5480    -0.4350 H             1 Compound
      28 H            5.8780    -2.8360    -0.6740 H             1 Compound
      29 H            3.9360    -4.5610     4.0850 H             1 Compound
      30 H            3.5940    -2.8370     3.9340 H             1 Compound
      31 H            8.3570    -0.7080    -5.6410 H             1 Compound
      32 H            8.8930    -2.1790    -4.8280 H             1 Compound
      33 H            8.0670    -2.0230    -7.7770 H             1 Compound
      34 H            8.7000    -3.4540    -6.9770 H             1 Compound
      35 H            6.1610    -1.8010    -6.1620 H             1 Compound
      36 H            6.7050    -3.2770    -5.3660 H             1 Compound
      37 H            4.8970    -5.0900    -2.5120 H             1 Compound
      38 H            6.3160    -4.1180    -2.8030 H             1 Compound
      39 H            1.1360    -3.3090     4.1210 H             1 Compound
      40 H            1.4770    -5.0330     4.2740 H             1 Compound
      41 H           10.2380    -0.8180    -7.3310 H             1 Compound
      42 H           10.3790    -2.2120    -8.3910 H             1 Compound
      43 H            6.9600    -2.0040    -3.2100 H             1 Compound
      44 H            6.3950    -0.5480    -4.0010 H             1 Compound
      45 H            3.3770    -3.2140    -2.9130 H             1 Compound
      46 H           11.1250    -2.1710    -5.4150 H             1 Compound
      47 H           11.1680    -3.6080    -6.4360 H             1 Compound
      48 H            4.1280    -1.3650    -4.1990 H             1 Compound
      49 H            2.4220    -2.8600     6.2270 H             1 Compound
      50 H            2.8140    -4.5710     6.3580 H             1 Compound
      51 H           12.8010    -1.0490    -6.9070 H             1 Compound
      52 H           12.8570    -2.5000    -7.9260 H             1 Compound
      53 H           13.4250    -2.5710    -6.2510 H             1 Compound
@<TRIPOS>BOND
       1        1       20 1
       2        2       20 1
       3        3        4 1
       4        3        5 1
       5        3       21 1
       6        3       22 1
       7        4        6 1
       8        4       23 1
       9        4       24 1
      10        5        7 1
      11        5       25 1
      12        5       26 1
      13        6       11 1
      14        6       27 1
      15        6       28 1
      16        7       12 1
      17        7       29 1
      18        7       30 1
      19        8        9 1
      20        8       10 1
      21        8       31 1
      22        8       32 1
      23        9       13 1
      24        9       33 1
      25        9       34 1
      26       10       14 1
      27       10       35 1
      28       10       36 1
      29       11       15 1
      30       11       37 1
      31       11       38 1
      32       12       18 1
      33       12       39 1
      34       12       40 1
      35       13       16 1
      36       13       41 1
      37       13       42 1
      38       14       17 1
      39       14       43 1
      40       14       44 1
      41       15       17 1
      42       15       45 1
      43       16       19 1
      44       16       46 1
      45       16       47 1
      46       17       48 1
      47       18       20 1
      48       18       49 1
      49       18       50 1
      50       19       51 1
      51       19       52 1
      52       19       53 1
@<TRIPOS>SUBSTRUCTURE
       1 Compound        1 RESIDUE    0 **** ROOT      0
