@<TRIPOS>MOLECULE
C27H37NOS2
109 110 1 0 0 
SMALL
USER_CHARGES


@<TRIPOS>ATOM
  1 C      -12.3649    -0.0565     1.1868 C.ar  1 <1>  -0.1500 
  2 H      -12.4565    -0.8336     0.4699 H     1 <1>   0.1500 
  3 C      -13.1376    -0.0872     2.3453 C.ar  1 <1>  -0.1500 
  4 C      -13.0405     0.9429     3.2702 C.ar  1 <1>  -0.1500 
  5 C      -12.1559     2.0113     3.0405 C.ar  1 <1>   0.0862 
  6 C      -12.0858     3.1070     3.9770 C.cat 1 <1>   0.7776 
  7 O      -11.3733     2.9729     5.0367 O.3   1 <1>  -0.9960 
  8 C      -12.7946     4.3496     3.8197 C.ar  1 <1>   0.0862 
  9 C      -13.5237     4.6289     2.6391 C.ar  1 <1>  -0.1500 
 10 C      -14.2480     5.8032     2.5250 C.ar  1 <1>  -0.1500 
 11 C      -14.2543     6.7180     3.5776 C.ar  1 <1>   0.0825 
 12 O      -14.9780     7.8442     3.4015 O.3   1 <1>  -0.3625 
 13 C      -15.0085     8.9509     4.3251 C.3   1 <1>   0.1200 
 14 C      -15.4166    10.2454     3.6322 C.3   1 <1>  -0.1600 
 15 C      -15.2460    11.4248     4.5968 C.3   1 <1>  -0.1600 
 16 C      -15.4763    12.7496     3.8673 C.3   1 <1>  -0.1600 
 17 C      -15.2158    13.9192     4.8202 C.3   1 <1>  -0.1600 
 18 C      -15.3427    15.2463     4.0699 C.3   1 <1>  -0.1600 
 19 C      -15.0721    16.4315     5.0017 C.3   1 <1>  -0.1600 
 20 C      -15.2313    17.7437     4.2290 C.3   1 <1>  -0.1600 
 21 C      -15.0762    18.9461     5.1638 C.3   1 <1>  -0.1600 
 22 C      -15.3047    20.2476     4.3928 C.3   1 <1>   0.0700 
 23 S      -15.5095    21.5773     5.5984 S.3   1 <1>  -0.4100 
 24 C      -13.5313     6.4721     4.7514 C.ar  1 <1>  -0.1500 
 25 C      -12.8009     5.3037     4.8629 C.ar  1 <1>  -0.1500 
 26 C      -11.3649     2.0210     1.8790 C.ar  1 <1>  -0.1500 
 27 C      -11.4748     0.9894     0.9567 C.ar  1 <1>  -0.1500 
 28 H      -13.8056    -0.8945     2.5119 H     1 <1>   0.1500 
 29 H      -13.6502     0.9247     4.1397 H     1 <1>   0.1500 
 30 H      -13.5316     3.9425     1.8300 H     1 <1>   0.1500 
 31 H      -14.8015     6.0232     1.6486 H     1 <1>   0.1500 
 32 H      -15.7072     8.7261     5.1326 H     1 <1>   0.0800 
 33 H      -14.0098     9.0964     4.7382 H     1 <1>   0.0800 
 34 H      -14.7718    10.3844     2.7645 H     1 <1>   0.0800 
 35 H      -16.4521    10.1709     3.2976 H     1 <1>   0.0800 
 36 H      -15.9559    11.3316     5.4216 H     1 <1>   0.0800 
 37 H      -14.2315    11.4168     5.0013 H     1 <1>   0.0800 
 38 H      -14.7953    12.8193     3.0166 H     1 <1>   0.0800 
 39 H      -16.5048    12.7926     3.5053 H     1 <1>   0.0800 
 40 H      -15.9373    13.8895     5.6369 H     1 <1>   0.0800 
 41 H      -14.2114    13.8338     5.2355 H     1 <1>   0.0800 
 42 H      -14.6300    15.2646     3.2445 H     1 <1>   0.0800 
 43 H      -16.3495    15.3293     3.6616 H     1 <1>   0.0800 
 44 H      -15.7801    16.4065     5.8311 H     1 <1>   0.0800 
 45 H      -14.0581    16.3663     5.4001 H     1 <1>   0.0800 
 46 H      -14.4799    17.7935     3.4405 H     1 <1>   0.0800 
 47 H      -16.2221    17.7737     3.7735 H     1 <1>   0.0800 
 48 H      -15.8065    18.8712     5.9704 H     1 <1>   0.0800 
 49 H      -14.0784    18.9534     5.6025 H     1 <1>   0.0800 
 50 H      -14.4507    20.4530     3.7455 H     1 <1>   0.0800 
 51 H      -16.2101    20.1714     3.7892 H     1 <1>   0.0800 
 52 H      -15.6487    22.5692     4.7122 H     1 <1>   0.1800 
 53 H      -13.5394     7.1661     5.5496 H     1 <1>   0.1500 
 54 H      -12.2441     5.1231     5.7464 H     1 <1>   0.1500 
 55 H      -10.6914     2.8201     1.6925 H     1 <1>   0.1500 
 56 H      -10.8880     0.9953     0.0718 H     1 <1>   0.1500 
 57 C        1.3968    11.1628    -0.5776 C.2   1 <1>   0.6590 
 58 H132    -1.5140    10.8108     2.4296 H     1 <1>   0.0800 
 59 C1       0.5942    10.7834     0.6593 C.3   1 <1>  -0.0990 
 60 H131    -2.7920    10.2791     1.3272 H     1 <1>   0.0800 
 61 C132   -10.6239     1.8471     5.5315 C.3   1 <1>   0.9660 
 62 H132   -10.8668     0.9453     4.9645 H     1 <1>   0.0800 
 63 H11      0.7748    11.5336     1.4272 H     1 <1>   0.0800 
 64 H12      0.9680     9.8295     1.0237 H     1 <1>   0.0800 
 65 C13     -0.9145    10.6789     0.3687 C.3   1 <1>  -0.1600 
 66 H131    -1.2815    11.6665     0.0833 H     1 <1>   0.0800 
 67 C132    -1.7319    10.1790     1.5685 C.3   1 <1>  -0.1600 
 68 C133    -1.4395     8.7098     1.9186 C.3   1 <1>  -0.1600 
 69 C131    -2.4142     8.1280     2.9528 C.3   1 <1>  -0.1600 
 70 H131    -3.4230     8.1094     2.5362 H     1 <1>   0.0800 
 71 C132    -2.4279     8.9019     4.2784 C.3   1 <1>  -0.1600 
 72 H131    -2.9275     9.8559     4.1217 H     1 <1>   0.0800 
 73 H132    -1.4040     9.1029     4.5935 H     1 <1>   0.0800 
 74 C133    -3.1515     8.1608     5.4133 C.3   1 <1>  -0.0218 
 75 H131    -3.3623     8.8657     6.2046 H     1 <1>   0.0800 
 76 C132    -2.3411     7.0156     5.9897 C.2   1 <1>  -0.2882 
 77 H132    -1.3064     7.0405     5.7559 H     1 <1>   0.1500 
 78 C133    -2.8342     6.0337     6.7612 C.2   1 <1>  -0.2882 
 79 H131    -2.1972     5.2687     7.1255 H     1 <1>   0.1500 
 80 C132    -4.2824     5.8885     7.1794 C.3   1 <1>  -0.0218 
 81 C131    -4.9815     4.7539     6.4229 C.3   1 <1>  -0.1600 
 82 H131    -4.9185     4.9752     5.3568 H     1 <1>   0.0800 
 83 C132    -6.4522     4.5603     6.8123 C.3   1 <1>  -0.1600 
 84 H131    -6.9988     5.4892     6.6464 H     1 <1>   0.0800 
 85 H132    -6.5187     4.2923     7.8684 H     1 <1>   0.0800 
 86 C133    -7.0569     3.4474     5.9488 C.3   1 <1>  -0.1600 
 87 H131    -6.9459     3.7180     4.8984 H     1 <1>   0.0800 
 88 C132    -8.5401     3.2353     6.2675 C.3   1 <1>  -0.1600 
 89 H131    -9.0878     4.1588     6.0700 H     1 <1>   0.0800 
 90 H132    -8.6376     2.9927     7.3280 H     1 <1>   0.0800 
 91 C133    -9.1131     2.0931     5.4005 C.3   1 <1>  -0.1600 
 92 H131    -8.9081     2.3087     4.3528 H     1 <1>   0.0800 
 93 C133   -11.0284     1.6204     6.9801 C.3   1 <1>  -0.2400 
 94 H131   -10.3796     0.8784     7.4389 H     1 <1>   0.0800 
 95 H132   -12.0620     1.2825     7.0098 H     1 <1>   0.0800 
 96 H133   -10.9584     2.5577     7.5302 H     1 <1>   0.0800 
 97 H133    -8.5937     1.1689     5.6560 H     1 <1>   0.0800 
 98 H133    -6.5062     2.5222     6.1296 H     1 <1>   0.0800 
 99 H133    -4.4383     3.8279     6.6158 H     1 <1>   0.0800 
100 H132    -4.8254     6.8115     7.0367 H     1 <1>   0.0800 
101 H133    -4.3226     5.6955     8.2428 H     1 <1>   0.0800 
102 H133    -4.1153     7.8146     5.0641 H     1 <1>   0.0800 
103 H133    -2.1142     7.1008     3.1514 H     1 <1>   0.0800 
104 H132    -0.4263     8.6180     2.3111 H     1 <1>   0.0800 
105 H133    -1.5093     8.1059     1.0118 H     1 <1>   0.0800 
106 H133    -1.0773    10.0109    -0.4784 H     1 <1>   0.0800 
107 O2       1.1308    12.0679    -1.3486 O.2   1 <1>  -0.5700 
108 O3       2.4767    10.3990    -0.8150 O.3   1 <1>  -0.6500 
109 H3       2.8429    10.7683    -1.6202 H     1 <1>   0.5000 
@<TRIPOS>BOND
  1   1   2  1   
  2   1   3  ar  
  3   1  27  ar  
  4   3   4  ar  
  5   3  28  1   
  6   4   5  ar  
  7   4  29  1   
  8   5   6  1   
  9   5  26  ar  
 10   6   7  1   
 11   6   8  1   
 12   7  61  1   
 13   8   9  ar  
 14   8  25  ar  
 15   9  10  ar  
 16   9  30  1   
 17  10  11  ar  
 18  10  31  1   
 19  11  12  1   
 20  11  24  ar  
 21  12  13  1   
 22  13  14  1   
 23  13  32  1   
 24  13  33  1   
 25  14  15  1   
 26  14  34  1   
 27  14  35  1   
 28  15  16  1   
 29  15  36  1   
 30  15  37  1   
 31  16  17  1   
 32  16  38  1   
 33  16  39  1   
 34  17  18  1   
 35  17  40  1   
 36  17  41  1   
 37  18  19  1   
 38  18  42  1   
 39  18  43  1   
 40  19  20  1   
 41  19  44  1   
 42  19  45  1   
 43  20  21  1   
 44  20  46  1   
 45  20  47  1   
 46  21  22  1   
 47  21  48  1   
 48  21  49  1   
 49  22  23  1   
 50  22  50  1   
 51  22  51  1   
 52  23  52  1   
 53  24  25  ar  
 54  24  53  1   
 55  25  54  1   
 56  26  27  ar  
 57  26  55  1   
 58  27  56  1   
 59  57  59  1   
 60  57 107  2   
 61  57 108  1   
 62  58  67  1   
 63  59  63  1   
 64  59  64  1   
 65  59  65  1   
 66  60  67  1   
 67  61  62  1   
 68  61  91  1   
 69  61  93  1   
 70  65  66  1   
 71  65  67  1   
 72  65 106  1   
 73  67  68  1   
 74  68  69  1   
 75  68 104  1   
 76  68 105  1   
 77  69  70  1   
 78  69  71  1   
 79  69 103  1   
 80  71  72  1   
 81  71  73  1   
 82  71  74  1   
 83  74  75  1   
 84  74  76  1   
 85  74 102  1   
 86  76  77  1   
 87  76  78  2   
 88  78  79  1   
 89  78  80  1   
 90  80  81  1   
 91  80 100  1   
 92  80 101  1   
 93  81  82  1   
 94  81  83  1   
 95  81  99  1   
 96  83  84  1   
 97  83  85  1   
 98  83  86  1   
 99  86  87  1   
100  86  88  1   
101  86  98  1   
102  88  89  1   
103  88  90  1   
104  88  91  1   
105  91  92  1   
106  91  97  1   
107  93  94  1   
108  93  95  1   
109  93  96  1   
110 108 109  1   
@<TRIPOS>SUBSTRUCTURE
  1 ****  25 GROUP 4 **** **** 0

# MOE 2020.09 (io_trps.svl 2020.11)
@<TRIPOS>MOLECULE
CCL4
3035 2428 607 0 0 
SMALL
USER_CHARGES


@<TRIPOS>ATOM
   1 CL      12.4931   -13.1197    -9.7216 Cl      1 CCL4  -0.0812 
   2 C       13.7606   -11.8935    -9.9247 C.3     1 CCL4   0.3246 
   3 CL      13.2467   -10.3766    -9.1566 Cl      1 CCL4  -0.0812 
   4 CL      14.0436   -11.6183   -11.6561 Cl      1 CCL4  -0.0812 
   5 CL      15.2610   -12.4655    -9.1673 Cl      1 CCL4  -0.0812 
   6 CL     -21.2308   -14.0841   -17.1203 Cl      2 CCL4  -0.0812 
   7 C      -21.2120   -14.0840   -15.3451 C.3     2 CCL4   0.3246 
   8 CL     -21.3902   -15.7502   -14.7572 Cl      2 CCL4  -0.0812 
   9 CL     -22.5514   -13.0889   -14.7371 Cl      2 CCL4  -0.0812 
  10 CL     -19.6713   -13.4167   -14.7683 Cl      2 CCL4  -0.0812 
  11 CL     -30.5556   -12.1571   -12.0109 Cl      3 CCL4  -0.0812 
  12 C      -30.7413   -13.9175   -12.1463 C.3     3 CCL4   0.3246 
  13 CL     -30.7663   -14.6384   -10.5240 Cl      3 CCL4  -0.0812 
  14 CL     -29.3829   -14.5950   -13.0673 Cl      3 CCL4  -0.0812 
  15 CL     -32.2649   -14.2840   -12.9820 Cl      3 CCL4  -0.0812 
  16 CL     -11.3284    -3.1187     3.5778 Cl      4 CCL4  -0.0812 
  17 C      -10.7646    -3.4697     1.9322 C.3     4 CCL4   0.3246 
  18 CL      -9.7349    -2.1325     1.3888 Cl      4 CCL4  -0.0812 
  19 CL     -12.1620    -3.6421     0.8495 Cl      4 CCL4  -0.0812 
  20 CL      -9.8245    -4.9725     1.9203 Cl      4 CCL4  -0.0812 
  21 CL     -26.4980    -6.4819   -12.1192 Cl      5 CCL4  -0.0812 
  22 C      -27.2333    -4.8706   -12.1881 C.3     5 CCL4   0.3246 
  23 CL     -28.9627    -5.0027   -11.8209 Cl      5 CCL4  -0.0812 
  24 CL     -27.0167    -4.1811   -13.8105 Cl      5 CCL4  -0.0812 
  25 CL     -26.4546    -3.8187   -10.9934 Cl      5 CCL4  -0.0812 
  26 CL     -25.7252    37.5247   -12.9886 Cl      6 CCL4  -0.0812 
  27 C      -25.9956    35.7775   -13.1160 C.3     6 CCL4   0.3246 
  28 CL     -24.4640    34.9710   -13.5154 Cl      6 CCL4  -0.0812 
  29 CL     -27.1878    35.4548   -14.3928 Cl      6 CCL4  -0.0812 
  30 CL     -26.6046    35.1636   -11.5650 Cl      6 CCL4  -0.0812 
  31 CL     -11.9915    -9.2050   -14.0888 Cl      7 CCL4  -0.0812 
  32 C      -11.9127    -7.5663   -14.7599 C.3     7 CCL4   0.3246 
  33 CL     -11.7388    -6.3818   -13.4521 Cl      7 CCL4  -0.0812 
  34 CL     -13.4041    -7.2324   -15.6604 Cl      7 CCL4  -0.0812 
  35 CL     -10.5092    -7.4460   -15.8359 Cl      7 CCL4  -0.0812 
  36 CL     -20.0818    -3.0711   -17.5171 Cl      8 CCL4  -0.0812 
  37 C      -20.7725    -1.9778   -16.3038 C.3     8 CCL4   0.3246 
  38 CL     -22.5105    -1.7894   -16.5968 Cl      8 CCL4  -0.0812 
  39 CL     -19.9863    -0.3898   -16.4168 Cl      8 CCL4  -0.0812 
  40 CL     -20.5183    -2.6650   -14.6872 Cl      8 CCL4  -0.0812 
  41 CL     -29.3527    -5.2924    23.3320 Cl      9 CCL4  -0.0812 
  42 C      -28.3821    -5.1404    21.8509 C.3     9 CCL4   0.3246 
  43 CL     -26.9553    -4.1344    22.1833 Cl      9 CCL4  -0.0812 
  44 CL     -29.3531    -4.3823    20.5719 Cl      9 CCL4  -0.0812 
  45 CL     -27.8699    -6.7527    21.3113 Cl      9 CCL4  -0.0812 
  46 CL     -24.8721    34.6013     2.6798 Cl     10 CCL4  -0.0812 
  47 C      -25.5401    35.8600     1.6202 C.3    10 CCL4   0.3246 
  48 CL     -25.1402    37.4561     2.2824 Cl     10 CCL4  -0.0812 
  49 CL     -27.3050    35.6812     1.5272 Cl     10 CCL4  -0.0812 
  50 CL     -24.8423    35.7003    -0.0055 Cl     10 CCL4  -0.0812 
  51 CL     -32.8991   -12.0816     3.7010 Cl     11 CCL4  -0.0812 
  52 C      -33.4334   -13.5643     2.8839 C.3    11 CCL4   0.3246 
  53 CL     -32.0921   -14.7261     2.8171 Cl     11 CCL4  -0.0812 
  54 CL     -33.9543   -13.1779     1.2297 Cl     11 CCL4  -0.0812 
  55 CL     -34.7881   -14.2749     3.7875 Cl     11 CCL4  -0.0812 
  56 CL     -24.8695   -12.7712    22.2905 Cl     12 CCL4  -0.0812 
  57 C      -25.7604   -14.2474    22.7231 C.3    12 CCL4   0.3246 
  58 CL     -27.0606   -13.8391    23.8601 Cl     12 CCL4  -0.0812 
  59 CL     -24.6566   -15.4109    23.4823 Cl     12 CCL4  -0.0812 
  60 CL     -26.4559   -14.9805    21.2640 Cl     12 CCL4  -0.0812 
  61 CL     -32.0518    36.1463    22.0025 Cl     13 CCL4  -0.0812 
  62 C      -30.7739    36.4778    23.1915 C.3    13 CCL4   0.3246 
  63 CL     -31.1660    35.6765    24.7277 Cl     13 CCL4  -0.0812 
  64 CL     -30.6547    38.2291    23.4507 Cl     13 CCL4  -0.0812 
  65 CL     -29.2237    35.8605    22.5837 Cl     13 CCL4  -0.0812 
  66 CL      -7.6800    37.4569   -10.2722 Cl     14 CCL4  -0.0812 
  67 C       -8.4265    35.8513   -10.3694 C.3    14 CCL4   0.3246 
  68 CL      -9.9211    35.8369    -9.4144 Cl     14 CCL4  -0.0812 
  69 CL      -7.3025    34.6383    -9.7220 Cl     14 CCL4  -0.0812 
  70 CL      -8.8021    35.4740   -12.0638 Cl     14 CCL4  -0.0812 
  71 CL     -32.2225    -3.7111   -11.1458 Cl     15 CCL4  -0.0812 
  72 C      -33.5587    -4.2538   -10.1121 C.3    15 CCL4   0.3246 
  73 CL     -35.0669    -4.1813   -11.0361 Cl     15 CCL4  -0.0812 
  74 CL     -33.6867    -3.1924    -8.6937 Cl     15 CCL4  -0.0812 
  75 CL     -33.2712    -5.9245    -9.5831 Cl     15 CCL4  -0.0812 
  76 CL     -21.2977    34.7259     1.1164 Cl     16 CCL4  -0.0812 
  77 C      -20.8284    35.9750     2.2893 C.3    16 CCL4   0.3246 
  78 CL     -21.5050    35.5794     3.8819 Cl     16 CCL4  -0.0812 
  79 CL     -21.4600    37.5445     1.7578 Cl     16 CCL4  -0.0812 
  80 CL     -19.0567    36.0522     2.4022 Cl     16 CCL4  -0.0812 
  81 CL     -25.6284    35.1164    -6.3195 Cl     17 CCL4  -0.0812 
  82 C      -24.6917    35.8768    -5.0162 C.3    17 CCL4   0.3246 
  83 CL     -23.5459    37.0406    -5.7151 Cl     17 CCL4  -0.0812 
  84 CL     -23.7959    34.6291    -4.1234 Cl     17 CCL4  -0.0812 
  85 CL     -25.7974    36.7154    -3.9074 Cl     17 CCL4  -0.0812 
  86 CL     -25.1294   -14.8900    -9.0058 Cl     18 CCL4  -0.0812 
  87 C      -26.7567   -14.4005    -8.4901 C.3    18 CCL4   0.3246 
  88 CL     -26.7019   -13.8221    -6.8095 Cl     18 CCL4  -0.0812 
  89 CL     -27.8498   -15.7937    -8.6090 Cl     18 CCL4  -0.0812 
  90 CL     -27.3485   -13.1011    -9.5447 Cl     18 CCL4  -0.0812 
  91 CL     -26.5249    -7.3104    -1.9816 Cl     19 CCL4  -0.0812 
  92 C      -27.4095    -5.8832    -1.4143 C.3    19 CCL4   0.3246 
  93 CL     -27.3847    -5.8320     0.3607 Cl     19 CCL4  -0.0812 
  94 CL     -29.0883    -5.9773    -1.9791 Cl     19 CCL4  -0.0812 
  95 CL     -26.6391    -4.4233    -2.0657 Cl     19 CCL4  -0.0812 
  96 CL     -19.9150   -15.1950    -4.2268 Cl     20 CCL4  -0.0812 
  97 C      -19.2232   -16.4099    -3.1304 C.3    20 CCL4   0.3246 
  98 CL     -20.0222   -17.9714    -3.4076 Cl     20 CCL4  -0.0812 
  99 CL     -19.4700   -15.9128    -1.4423 Cl     20 CCL4  -0.0812 
 100 CL     -17.4823   -16.5674    -3.4447 Cl     20 CCL4  -0.0812 
 101 CL     -11.9563   -12.8260    -2.5475 Cl     21 CCL4  -0.0812 
 102 C      -11.3244   -14.4862    -2.6047 C.3    21 CCL4   0.3246 
 103 CL      -9.8556   -14.5382    -3.6017 Cl     21 CCL4  -0.0812 
 104 CL     -12.5528   -15.5607    -3.3060 Cl     21 CCL4  -0.0812 
 105 CL     -10.9289   -15.0304    -0.9619 Cl     21 CCL4  -0.0812 
 106 CL      -9.2247    -6.0690    -5.0408 Cl     22 CCL4  -0.0812 
 107 C       -9.1541    -5.8583    -6.8042 C.3    22 CCL4   0.3246 
 108 CL      -8.7642    -4.1713    -7.1776 Cl     22 CCL4  -0.0812 
 109 CL     -10.7185    -6.2818    -7.5238 Cl     22 CCL4  -0.0812 
 110 CL      -7.9016    -6.9059    -7.4920 Cl     22 CCL4  -0.0812 
 111 CL     -24.8543   -10.3148   -13.8702 Cl     23 CCL4  -0.0812 
 112 C      -25.5753   -11.0746   -12.4374 C.3    23 CCL4   0.3246 
 113 CL     -27.0557   -11.9201   -12.9176 Cl     23 CCL4  -0.0812 
 114 CL     -25.9733    -9.8369   -11.2317 Cl     23 CCL4  -0.0812 
 115 CL     -24.4276   -12.2294   -11.7316 Cl     23 CCL4  -0.0812 
 116 CL     -25.8124    -6.9179    -6.0745 Cl     24 CCL4  -0.0812 
 117 C      -26.1607    -7.4806    -7.7237 C.3    24 CCL4   0.3246 
 118 CL     -26.9206    -9.0848    -7.6628 Cl     24 CCL4  -0.0812 
 119 CL     -24.6525    -7.5728    -8.6580 Cl     24 CCL4  -0.0812 
 120 CL     -27.2679    -6.3392    -8.5063 Cl     24 CCL4  -0.0812 
 121 CL     -29.2780    -8.5663   -10.5657 Cl     25 CCL4  -0.0812 
 122 C      -30.4841    -9.1593    -9.4069 C.3    25 CCL4   0.3246 
 123 CL     -30.0117   -10.7660    -8.8207 Cl     25 CCL4  -0.0812 
 124 CL     -32.0627    -9.2561   -10.2089 Cl     25 CCL4  -0.0812 
 125 CL     -30.5885    -8.0484    -8.0287 Cl     25 CCL4  -0.0812 
 126 CL      -9.5171   -11.6887    -0.2762 Cl     26 CCL4  -0.0812 
 127 C       -9.0604   -11.8769     1.4272 C.3    26 CCL4   0.3246 
 128 CL      -8.7700   -13.5937     1.7741 Cl     26 CCL4  -0.0812 
 129 CL     -10.3731   -11.2742     2.4594 Cl     26 CCL4  -0.0812 
 130 CL      -7.5803   -10.9524     1.7481 Cl     26 CCL4  -0.0812 
 131 CL     -23.3267    -8.0609   -16.5953 Cl     27 CCL4  -0.0812 
 132 C      -24.0413    -6.7998   -15.5724 C.3    27 CCL4   0.3246 
 133 CL     -23.5354    -7.0479   -13.8950 Cl     27 CCL4  -0.0812 
 134 CL     -25.8088    -6.8937   -15.6826 Cl     27 CCL4  -0.0812 
 135 CL     -23.4936    -5.1977   -16.1048 Cl     27 CCL4  -0.0812 
 136 CL     -31.1823    -2.6543    -6.0505 Cl     28 CCL4  -0.0812 
 137 C      -30.6232    -4.3027    -6.3846 C.3    28 CCL4   0.3246 
 138 CL     -31.9035    -5.4527    -5.9472 Cl     28 CCL4  -0.0812 
 139 CL     -29.1663    -4.6387    -5.4260 Cl     28 CCL4  -0.0812 
 140 CL     -30.2481    -4.4547    -8.1131 Cl     28 CCL4  -0.0812 
 141 CL     -33.4743    -7.2420   -15.4415 Cl     29 CCL4  -0.0812 
 142 C      -33.0587    -7.8438   -13.8222 C.3    29 CCL4   0.3246 
 143 CL     -32.5480    -9.5411   -13.9370 Cl     29 CCL4  -0.0812 
 144 CL     -34.4776    -7.7177   -12.7581 Cl     29 CCL4  -0.0812 
 145 CL     -31.7301    -6.8726   -13.1560 Cl     29 CCL4  -0.0812 
 146 CL     -29.6249   -11.3371   -15.3835 Cl     30 CCL4  -0.0812 
 147 C      -28.9471    -9.7398   -15.7494 C.3    30 CCL4   0.3246 
 148 CL     -30.1041    -8.8371   -16.7465 Cl     30 CCL4  -0.0812 
 149 CL     -27.4168    -9.9352   -16.6314 Cl     30 CCL4  -0.0812 
 150 CL     -28.6539    -8.8547   -14.2369 Cl     30 CCL4  -0.0812 
 151 CL     -10.1290   -13.2709    -8.4633 Cl     31 CCL4  -0.0812 
 152 C      -11.6003   -13.3819    -7.4772 C.3    31 CCL4   0.3246 
 153 CL     -11.4209   -12.3793    -6.0292 Cl     31 CCL4  -0.0812 
 154 CL     -11.8700   -15.0656    -6.9857 Cl     31 CCL4  -0.0812 
 155 CL     -12.9851   -12.8047    -8.4221 Cl     31 CCL4  -0.0812 
 156 CL      -9.5266    -9.7528    -9.2044 Cl     32 CCL4  -0.0812 
 157 C      -10.3599    -9.5533   -10.7523 C.3    32 CCL4   0.3246 
 158 CL     -10.9527   -11.1306   -11.3103 Cl     32 CCL4  -0.0812 
 159 CL      -9.2275    -8.8779   -11.9429 Cl     32 CCL4  -0.0812 
 160 CL     -11.7314    -8.4509   -10.5381 Cl     32 CCL4  -0.0812 
 161 CL     -20.9125    -7.9096    -1.1103 Cl     33 CCL4  -0.0812 
 162 C      -22.5756    -8.4051    -0.7406 C.3    33 CCL4   0.3246 
 163 CL     -22.5541    -9.7262     0.4405 Cl     33 CCL4  -0.0812 
 164 CL     -23.3829    -8.9608    -2.2200 Cl     33 CCL4  -0.0812 
 165 CL     -23.4530    -7.0212    -0.0647 Cl     33 CCL4  -0.0812 
 166 CL     -23.8370    -9.8570    -5.8194 Cl     34 CCL4  -0.0812 
 167 C      -23.0703   -10.9504    -6.9855 C.3    34 CCL4   0.3246 
 168 CL     -24.2735   -11.4859    -8.1725 Cl     34 CCL4  -0.0812 
 169 CL     -22.4185   -12.3538    -6.1167 Cl     34 CCL4  -0.0812 
 170 CL     -21.7598   -10.1034    -7.8307 Cl     34 CCL4  -0.0812 
 171 CL     -18.7966    -8.9449    -6.3326 Cl     35 CCL4  -0.0812 
 172 C      -19.0767    -9.9419    -4.8942 C.3    35 CCL4   0.3246 
 173 CL     -20.6713    -9.5661    -4.2283 Cl     35 CCL4  -0.0812 
 174 CL     -17.8313    -9.5926    -3.6781 Cl     35 CCL4  -0.0812 
 175 CL     -19.0219   -11.6584    -5.3380 Cl     35 CCL4  -0.0812 
 176 CL     -27.0188   -14.0343    -0.5912 Cl     36 CCL4  -0.0812 
 177 C      -28.4994   -14.1080    -1.5650 C.3    36 CCL4   0.3246 
 178 CL     -29.7811   -13.1604    -0.7820 Cl     36 CCL4  -0.0812 
 179 CL     -29.0206   -15.7989    -1.7143 Cl     36 CCL4  -0.0812 
 180 CL     -28.1727   -13.4388    -3.1748 Cl     36 CCL4  -0.0812 
 181 CL     -28.9568    -8.1063    -4.7832 Cl     37 CCL4  -0.0812 
 182 C      -28.7529    -9.7429    -4.1332 C.3    37 CCL4   0.3246 
 183 CL     -29.6890   -10.8780    -5.1241 Cl     37 CCL4  -0.0812 
 184 CL     -29.3348    -9.7926    -2.4542 Cl     37 CCL4  -0.0812 
 185 CL     -27.0351   -10.1903    -4.1820 Cl     37 CCL4  -0.0812 
 186 CL     -11.9168    -6.5840    -1.4015 Cl     38 CCL4  -0.0812 
 187 C      -11.3333    -8.2180    -1.0304 C.3    38 CCL4   0.3246 
 188 CL     -10.7829    -9.0040    -2.5194 Cl     38 CCL4  -0.0812 
 189 CL     -12.6453    -9.1760    -0.3115 Cl     38 CCL4  -0.0812 
 190 CL      -9.9780    -8.1094     0.1075 Cl     38 CCL4  -0.0812 
 191 CL     -21.7164    -3.9062    -5.5046 Cl     39 CCL4  -0.0812 
 192 C      -21.7585    -5.5699    -4.8932 C.3    39 CCL4   0.3246 
 193 CL     -20.1868    -5.9726    -4.1709 Cl     39 CCL4  -0.0812 
 194 CL     -22.0870    -6.6820    -6.2342 Cl     39 CCL4  -0.0812 
 195 CL     -23.0427    -5.7168    -3.6740 Cl     39 CCL4  -0.0812 
 196 CL     -33.2009    -8.0540    -0.6351 Cl     40 CCL4  -0.0812 
 197 C      -32.2742    -8.6130     0.7724 C.3    40 CCL4   0.3246 
 198 CL     -31.7875   -10.3015     0.5226 Cl     40 CCL4  -0.0812 
 199 CL     -33.2853    -8.4978     2.2290 Cl     40 CCL4  -0.0812 
 200 CL     -30.8272    -7.6007     0.9668 Cl     40 CCL4  -0.0812 
 201 CL     -26.0672   -10.6254    -0.6336 Cl     41 CCL4  -0.0812 
 202 C      -26.4947   -10.3875     1.0698 C.3    41 CCL4   0.3246 
 203 CL     -25.7838   -11.6782     2.0575 Cl     41 CCL4  -0.0812 
 204 CL     -28.2593   -10.4141     1.2304 Cl     41 CCL4  -0.0812 
 205 CL     -25.8715    -8.8250     1.6250 Cl     41 CCL4  -0.0812 
 206 CL     -23.4694   -13.0607    -0.2203 Cl     42 CCL4  -0.0812 
 207 C      -23.0044   -13.3252    -1.9095 C.3    42 CCL4   0.3246 
 208 CL     -22.8016   -15.0646    -2.1843 Cl     42 CCL4  -0.0812 
 209 CL     -21.4750   -12.4852    -2.2372 Cl     42 CCL4  -0.0812 
 210 CL     -24.2714   -12.6994    -2.9865 Cl     42 CCL4  -0.0812 
 211 CL     -15.3907    -8.1346    -6.1883 Cl     43 CCL4  -0.0812 
 212 C      -13.7705    -8.7340    -5.7921 C.3    43 CCL4   0.3246 
 213 CL     -12.8300    -7.4288    -5.0476 Cl     43 CCL4  -0.0812 
 214 CL     -12.9696    -9.2810    -7.2789 Cl     43 CCL4  -0.0812 
 215 CL     -13.8979   -10.0868    -4.6516 Cl     43 CCL4  -0.0812 
 216 CL      15.8102   -11.2477    -3.0542 Cl     44 CCL4  -0.0812 
 217 C       15.1158   -10.0907    -4.2101 C.3    44 CCL4   0.3246 
 218 CL      16.0206    -8.5644    -4.1413 Cl     44 CCL4  -0.0812 
 219 CL      13.4167    -9.7902    -3.7897 Cl     44 CCL4  -0.0812 
 220 CL      15.2156   -10.7572    -5.8540 Cl     44 CCL4  -0.0812 
 221 CL     -31.5987   -14.5454    -4.3419 Cl     45 CCL4  -0.0812 
 222 C      -30.8282   -15.1889    -5.8083 C.3    45 CCL4   0.3246 
 223 CL     -31.9324   -16.3197    -6.6182 Cl     45 CCL4  -0.0812 
 224 CL     -29.3350   -16.0444    -5.3680 Cl     45 CCL4  -0.0812 
 225 CL     -30.4482   -13.8504    -6.9099 Cl     45 CCL4  -0.0812 
 226 CL     -19.0518   -10.7549     0.0662 Cl     46 CCL4  -0.0812 
 227 C      -18.8551   -11.7330     1.5338 C.3    46 CCL4   0.3246 
 228 CL     -17.6455   -10.9789     2.5925 Cl     46 CCL4  -0.0812 
 229 CL     -18.3155   -13.3648     1.0932 Cl     46 CCL4  -0.0812 
 230 CL     -20.4097   -11.8365     2.3816 Cl     46 CCL4  -0.0812 
 231 CL     -15.7937   -13.2837   -14.7555 Cl     47 CCL4  -0.0812 
 232 C      -15.6186   -11.7204   -13.9319 C.3    47 CCL4   0.3246 
 233 CL     -15.2383   -10.4690   -15.1334 Cl     47 CCL4  -0.0812 
 234 CL     -14.3050   -11.8154   -12.7401 Cl     47 CCL4  -0.0812 
 235 CL     -17.1369   -11.3188   -13.1027 Cl     47 CCL4  -0.0812 
 236 CL     -12.0946   -12.6252    24.4855 Cl     48 CCL4  -0.0812 
 237 C      -12.2271   -12.2309    22.7592 C.3    48 CCL4   0.3246 
 238 CL     -10.7882   -12.8296    21.9071 Cl     48 CCL4  -0.0812 
 239 CL     -12.3425   -10.4723    22.5592 Cl     48 CCL4  -0.0812 
 240 CL     -13.6830   -12.9935    22.0850 Cl     48 CCL4  -0.0812 
 241 CL     -12.2124   -14.5898   -11.3745 Cl     49 CCL4  -0.0812 
 242 C      -13.2804   -16.0051   -11.4203 C.3    49 CCL4   0.3246 
 243 CL     -14.8448   -15.5461   -12.1230 Cl     49 CCL4  -0.0812 
 244 CL     -13.5280   -16.6131    -9.7713 Cl     49 CCL4  -0.0812 
 245 CL     -12.5338   -17.2736   -12.4139 Cl     49 CCL4  -0.0812 
 246 CL     -17.1486    -6.4892   -11.3682 Cl     50 CCL4  -0.0812 
 247 C      -15.4099    -6.5400   -11.7100 C.3    50 CCL4   0.3246 
 248 CL     -14.5030    -6.3005   -10.2019 Cl     50 CCL4  -0.0812 
 249 CL     -15.0084    -5.2594   -12.8720 Cl     50 CCL4  -0.0812 
 250 CL     -14.9852    -8.1165   -12.4019 Cl     50 CCL4  -0.0812 
 251 CL     -19.8626    -7.1020   -16.2981 Cl     51 CCL4  -0.0812 
 252 C      -18.2038    -6.8994   -15.7073 C.3    51 CCL4   0.3246 
 253 CL     -17.8853    -8.0924   -14.4411 Cl     51 CCL4  -0.0812 
 254 CL     -18.0159    -5.2676   -15.0409 Cl     51 CCL4  -0.0812 
 255 CL     -17.0542    -7.1435   -17.0366 Cl     51 CCL4  -0.0812 
 256 CL     -15.7406    36.9944    -6.8070 Cl     52 CCL4  -0.0812 
 257 C      -17.3027    36.6325    -7.5730 C.3    52 CCL4   0.3246 
 258 CL     -18.0491    35.2253    -6.7880 Cl     52 CCL4  -0.0812 
 259 CL     -17.0526    36.2730    -9.2923 Cl     52 CCL4  -0.0812 
 260 CL     -18.3748    38.0365    -7.4105 Cl     52 CCL4  -0.0812 
 261 CL     -20.9448   -16.6956    -9.3148 Cl     53 CCL4  -0.0812 
 262 C      -21.1160   -15.1851   -10.2338 C.3    53 CCL4   0.3246 
 263 CL     -22.4497   -15.3463   -11.3927 Cl     53 CCL4  -0.0812 
 264 CL     -19.6089   -14.8465   -11.1126 Cl     53 CCL4  -0.0812 
 265 CL     -21.4675   -13.8545    -9.1145 Cl     53 CCL4  -0.0812 
 266 CL     -15.1822   -13.8680     2.8338 Cl     54 CCL4  -0.0812 
 267 C      -13.5719   -14.1907     2.1607 C.3    54 CCL4   0.3246 
 268 CL     -13.1597   -12.9170     0.9932 Cl     54 CCL4  -0.0812 
 269 CL     -13.5823   -15.7714     1.3518 Cl     54 CCL4  -0.0812 
 270 CL     -12.3669   -14.2115     3.4653 Cl     54 CCL4  -0.0812 
 271 CL     -18.6830    -3.4610    -7.1508 Cl     55 CCL4  -0.0812 
 272 C      -17.2440    -4.4136    -7.5515 C.3    55 CCL4   0.3246 
 273 CL     -16.1693    -4.4900    -6.1411 Cl     55 CCL4  -0.0812 
 274 CL     -16.3962    -3.6539    -8.9140 Cl     55 CCL4  -0.0812 
 275 CL     -17.7399    -6.0545    -7.9993 Cl     55 CCL4  -0.0812 
 276 CL     -17.7238    -6.2583    -1.3275 Cl     56 CCL4  -0.0812 
 277 C      -16.1477    -6.9604    -0.9085 C.3    56 CCL4   0.3246 
 278 CL     -15.2758    -7.3799    -2.3963 Cl     56 CCL4  -0.0812 
 279 CL     -16.3831    -8.4240     0.0676 Cl     56 CCL4  -0.0812 
 280 CL     -15.2064    -5.7806     0.0258 Cl     56 CCL4  -0.0812 
 281 CL     -15.3962   -13.2657    -3.9918 Cl     57 CCL4  -0.0812 
 282 C      -16.0085   -13.0368    -2.3407 C.3    57 CCL4   0.3246 
 283 CL     -17.7764   -12.9467    -2.3824 Cl     57 CCL4  -0.0812 
 284 CL     -15.3588   -11.5329    -1.6555 Cl     57 CCL4  -0.0812 
 285 CL     -15.5165   -14.4083    -1.3287 Cl     57 CCL4  -0.0812 
 286 CL     -18.3979    -8.0907     4.6130 Cl     58 CCL4  -0.0812 
 287 C      -19.2416    -6.9388     3.5563 C.3    58 CCL4   0.3246 
 288 CL     -18.0942    -6.2473     2.3919 Cl     58 CCL4  -0.0812 
 289 CL     -19.9444    -5.6361     4.5386 Cl     58 CCL4  -0.0812 
 290 CL     -20.5296    -7.7812     2.6736 Cl     58 CCL4  -0.0812 
 291 CL     -18.2972   -10.8260    23.0982 Cl     59 CCL4  -0.0812 
 292 C      -19.3499   -10.6563    21.6805 C.3    59 CCL4   0.3246 
 293 CL     -18.8930    -9.1974    20.7786 Cl     59 CCL4  -0.0812 
 294 CL     -21.0376   -10.5201    22.2153 Cl     59 CCL4  -0.0812 
 295 CL     -19.1668   -12.0809    20.6348 Cl     59 CCL4  -0.0812 
 296 CL     -16.0609   -10.0361    -9.6314 Cl     60 CCL4  -0.0812 
 297 C      -16.7297   -11.5249    -8.9328 C.3    60 CCL4   0.3246 
 298 CL     -16.1399   -11.7037    -7.2675 Cl     60 CCL4  -0.0812 
 299 CL     -16.2174   -12.9247    -9.8970 Cl     60 CCL4  -0.0812 
 300 CL     -18.5021   -11.4366    -8.9353 Cl     60 CCL4  -0.0812 
 301 CL     -21.0577    -9.6506   -13.8667 Cl     61 CCL4  -0.0812 
 302 C      -20.9626    -9.9011   -12.1110 C.3    61 CCL4   0.3246 
 303 CL     -22.3964    -9.2108   -11.3254 Cl     61 CCL4  -0.0812 
 304 CL     -19.5072    -9.1195   -11.4673 Cl     61 CCL4  -0.0812 
 305 CL     -20.8863   -11.6378   -11.7767 Cl     61 CCL4  -0.0812 
 306 CL     -20.5749    -5.6944   -12.3711 Cl     62 CCL4  -0.0812 
 307 C      -21.3165    -5.2220   -10.8272 C.3    62 CCL4   0.3246 
 308 CL     -20.6758    -3.6497   -10.3188 Cl     62 CCL4  -0.0812 
 309 CL     -20.9420    -6.4330    -9.5860 Cl     62 CCL4  -0.0812 
 310 CL     -23.0754    -5.1024   -11.0253 Cl     62 CCL4  -0.0812 
 311 CL      13.2720   -14.0645    11.4329 Cl     63 CCL4  -0.0812 
 312 C       14.0942   -12.7227    12.2542 C.3    63 CCL4   0.3246 
 313 CL      12.9446   -11.3916    12.4918 Cl     63 CCL4  -0.0812 
 314 CL      15.4604   -12.1702    11.2613 Cl     63 CCL4  -0.0812 
 315 CL      14.6939   -13.2700    13.8337 Cl     63 CCL4  -0.0812 
 316 CL     -21.9753   -17.0971     9.1773 Cl     64 CCL4  -0.0812 
 317 C      -21.3490   -15.9926    10.4194 C.3    64 CCL4   0.3246 
 318 CL     -21.4633   -16.7788    12.0058 Cl     64 CCL4  -0.0812 
 319 CL     -22.3026   -14.4928    10.4319 Cl     64 CCL4  -0.0812 
 320 CL     -19.6507   -15.6120    10.0674 Cl     64 CCL4  -0.0812 
 321 CL     -30.2510   -12.3632    14.0278 Cl     65 CCL4  -0.0812 
 322 C      -29.8803   -14.0937    13.8936 C.3    65 CCL4   0.3246 
 323 CL     -30.2661   -14.8977    15.4296 Cl     65 CCL4  -0.0812 
 324 CL     -28.1562   -14.3018    13.5303 Cl     65 CCL4  -0.0812 
 325 CL     -30.8455   -14.8138    12.5873 Cl     65 CCL4  -0.0812 
 326 CL     -29.9297    -5.2065    11.8417 Cl     66 CCL4  -0.0812 
 327 C      -29.4269    -4.4127    13.3410 C.3    66 CCL4   0.3246 
 328 CL     -30.8432    -3.6886    14.1323 Cl     66 CCL4  -0.0812 
 329 CL     -28.2419    -3.1432    12.9747 Cl     66 CCL4  -0.0812 
 330 CL     -28.6921    -5.6238    14.4063 Cl     66 CCL4  -0.0812 
 331 CL     -24.7383    37.1591    13.2330 Cl     67 CCL4  -0.0812 
 332 C      -24.9018    35.5233    13.8950 C.3    67 CCL4   0.3246 
 333 CL     -23.6352    35.2541    15.1103 Cl     67 CCL4  -0.0812 
 334 CL     -24.7353    34.3378    12.5823 Cl     67 CCL4  -0.0812 
 335 CL     -26.4984    35.3473    14.6525 Cl     67 CCL4  -0.0812 
 336 CL     -13.3627    -8.7967    10.5907 Cl     68 CCL4  -0.0812 
 337 C      -12.7497    -7.1833    10.1756 C.3    68 CCL4   0.3246 
 338 CL     -11.1916    -6.9167    10.9751 Cl     68 CCL4  -0.0812 
 339 CL     -13.9024    -5.9463    10.7203 Cl     68 CCL4  -0.0812 
 340 CL     -12.5316    -7.0734     8.4184 Cl     68 CCL4  -0.0812 
 341 CL     -20.4346    -3.2975     8.7047 Cl     69 CCL4  -0.0812 
 342 C      -22.1109    -3.7080     9.0949 C.3    69 CCL4   0.3246 
 343 CL     -22.5066    -5.3007     8.4149 Cl     69 CCL4  -0.0812 
 344 CL     -23.1766    -2.4793     8.3950 Cl     69 CCL4  -0.0812 
 345 CL     -22.3166    -3.7384    10.8575 Cl     69 CCL4  -0.0812 
 346 CL     -28.6662    -5.7603     8.7016 Cl     70 CCL4  -0.0812 
 347 C      -27.0486    -5.6949     7.9817 C.3    70 CCL4   0.3246 
 348 CL     -26.0801    -4.4629     8.8131 Cl     70 CCL4  -0.0812 
 349 CL     -27.1962    -5.2799     6.2649 Cl     70 CCL4  -0.0812 
 350 CL     -26.2601    -7.2759     8.1465 Cl     70 CCL4  -0.0812 
 351 CL     -27.5617   -14.6327     8.3151 Cl     71 CCL4  -0.0812 
 352 C      -27.1452   -16.1953     9.0477 C.3    71 CCL4   0.3246 
 353 CL     -28.1269   -16.4468    10.5065 Cl     71 CCL4  -0.0812 
 354 CL     -25.4261   -16.2114     9.4870 Cl     71 CCL4  -0.0812 
 355 CL     -27.4638   -17.4955     7.8812 Cl     71 CCL4  -0.0812 
 356 CL     -32.2292    37.1514     6.3756 Cl     72 CCL4  -0.0812 
 357 C      -32.0198    36.8282     8.1091 C.3    72 CCL4   0.3246 
 358 CL     -33.6127    36.7130     8.8847 Cl     72 CCL4  -0.0812 
 359 CL     -31.0950    38.1464     8.8540 Cl     72 CCL4  -0.0812 
 360 CL     -31.1418    35.2998     8.3240 Cl     72 CCL4  -0.0812 
 361 CL      -8.1339    37.5475    15.1147 Cl     73 CCL4  -0.0812 
 362 C       -9.3236    36.2299    15.1062 C.3    73 CCL4   0.3246 
 363 CL     -10.8002    36.7595    15.9375 Cl     73 CCL4  -0.0812 
 364 CL      -8.6416    34.8213    15.9457 Cl     73 CCL4  -0.0812 
 365 CL      -9.7198    35.7876    13.4320 Cl     73 CCL4  -0.0812 
 366 CL     -33.2668    -6.2157    11.5377 Cl     74 CCL4  -0.0812 
 367 C      -34.9782    -6.2181    12.0006 C.3    74 CCL4   0.3246 
 368 CL     -35.8841    -5.1293    10.9306 Cl     74 CCL4  -0.0812 
 369 CL     -35.1284    -5.6637    13.6801 Cl     74 CCL4  -0.0812 
 370 CL     -35.6290    -7.8623    11.8521 Cl     74 CCL4  -0.0812 
 371 CL     -30.7468    -3.8339     6.0413 Cl     75 CCL4  -0.0812 
 372 C      -31.0483    -4.4648     4.4082 C.3    75 CCL4   0.3246 
 373 CL     -32.3620    -3.5487     3.6446 Cl     75 CCL4  -0.0812 
 374 CL     -31.5206    -6.1716     4.5055 Cl     75 CCL4  -0.0812 
 375 CL     -29.5712    -4.3088     3.4364 Cl     75 CCL4  -0.0812 
 376 CL     -24.6313    35.6443    18.6877 Cl     76 CCL4  -0.0812 
 377 C      -23.0980    36.0807    19.4706 C.3    76 CCL4   0.3246 
 378 CL     -21.7464    35.7177    18.3772 Cl     76 CCL4  -0.0812 
 379 CL     -22.9139    35.1541    20.9750 Cl     76 CCL4  -0.0812 
 380 CL     -23.1002    37.8124    19.8471 Cl     76 CCL4  -0.0812 
 381 CL     -24.3780   -13.8382    16.5469 Cl     77 CCL4  -0.0812 
 382 C      -26.0016   -13.3664    17.0931 C.3    77 CCL4   0.3246 
 383 CL     -25.8967   -12.6286    18.7010 Cl     77 CCL4  -0.0812 
 384 CL     -27.0422   -14.8009    17.1744 Cl     77 CCL4  -0.0812 
 385 CL     -26.6970   -12.1958    15.9562 Cl     77 CCL4  -0.0812 
 386 CL     -10.6771    -4.6885    18.6553 Cl     78 CCL4  -0.0812 
 387 C       -9.1842    -4.8562    17.7134 C.3    78 CCL4   0.3246 
 388 CL      -7.8146    -4.2201    18.6483 Cl     78 CCL4  -0.0812 
 389 CL      -9.3411    -3.9483    16.1962 Cl     78 CCL4  -0.0812 
 390 CL      -8.9120    -6.5711    17.3552 Cl     78 CCL4  -0.0812 
 391 CL     -24.3465   -10.6147    10.7283 Cl     79 CCL4  -0.0812 
 392 C      -25.2443   -11.6062    11.8950 C.3    79 CCL4   0.3246 
 393 CL     -25.8720   -13.0415    11.0667 Cl     79 CCL4  -0.0812 
 394 CL     -26.5940   -10.6663    12.5641 Cl     79 CCL4  -0.0812 
 395 CL     -24.1675   -12.1083    13.2137 Cl     79 CCL4  -0.0812 
 396 CL     -27.5334    -9.3296    18.6815 Cl     80 CCL4  -0.0812 
 397 C      -27.5068    -8.0452    17.4574 C.3    80 CCL4   0.3246 
 398 CL     -27.6010    -8.7713    15.8417 Cl     80 CCL4  -0.0812 
 399 CL     -25.9970    -7.1295    17.5992 Cl     80 CCL4  -0.0812 
 400 CL     -28.8840    -6.9505    17.7058 Cl     80 CCL4  -0.0812 
 401 CL     -30.2419    -8.6964    13.3607 Cl     81 CCL4  -0.0812 
 402 C      -31.5589    -8.6865    14.5514 C.3    81 CCL4   0.3246 
 403 CL     -31.0442    -9.5297    16.0254 Cl     81 CCL4  -0.0812 
 404 CL     -32.9722    -9.5056    13.8639 Cl     81 CCL4  -0.0812 
 405 CL     -31.9874    -7.0134    14.9561 Cl     81 CCL4  -0.0812 
 406 CL     -14.3443   -13.0512     6.2524 Cl     82 CCL4  -0.0812 
 407 C      -14.6124   -11.3157     5.9967 C.3    82 CCL4   0.3246 
 408 CL     -13.9795   -10.8477     4.4035 Cl     82 CCL4  -0.0812 
 409 CL     -13.7809   -10.3947     7.2671 Cl     82 CCL4  -0.0812 
 410 CL     -16.3518   -10.9740     6.0649 Cl     82 CCL4  -0.0812 
 411 CL     -24.0334    -7.1349    11.1422 Cl     83 CCL4  -0.0812 
 412 C      -25.3301    -6.6464    12.2497 C.3    83 CCL4   0.3246 
 413 CL     -25.0321    -7.3274    13.8617 Cl     83 CCL4  -0.0812 
 414 CL     -26.8884    -7.2352    11.6438 Cl     83 CCL4  -0.0812 
 415 CL     -25.3697    -4.8790    12.3451 Cl     83 CCL4  -0.0812 
 416 CL     -11.0276    -9.1130     5.5112 Cl     84 CCL4  -0.0812 
 417 C      -10.7452    -7.8574     4.2970 C.3    84 CCL4   0.3246 
 418 CL      -9.1323    -8.0715     3.5953 Cl     84 CCL4  -0.0812 
 419 CL     -10.8474    -6.2706     5.0741 Cl     84 CCL4  -0.0812 
 420 CL     -11.9724    -7.9707     3.0199 Cl     84 CCL4  -0.0812 
 421 CL     -23.1106    -9.8412     4.0399 Cl     85 CCL4  -0.0812 
 422 C      -23.5139    -8.8300     5.4395 C.3    85 CCL4   0.3246 
 423 CL     -24.3623    -9.8163     6.6465 Cl     85 CCL4  -0.0812 
 424 CL     -24.5570    -7.4913     4.9160 Cl     85 CCL4  -0.0812 
 425 CL     -22.0251    -8.1754     6.1516 Cl     85 CCL4  -0.0812 
 426 CL     -28.6775   -15.8146     4.7612 Cl     86 CCL4  -0.0812 
 427 C      -28.4950   -14.0775     4.4416 C.3    86 CCL4   0.3246 
 428 CL     -29.7492   -13.1811     5.3167 Cl     86 CCL4  -0.0812 
 429 CL     -28.6557   -13.7706     2.7012 Cl     86 CCL4  -0.0812 
 430 CL     -26.8975   -13.5406     4.9908 Cl     86 CCL4  -0.0812 
 431 CL     -29.2685    -8.2597     6.3477 Cl     87 CCL4  -0.0812 
 432 C      -28.8320    -8.9097     4.7595 C.3    87 CCL4   0.3246 
 433 CL     -28.3229    -7.5830     3.6993 Cl     87 CCL4  -0.0812 
 434 CL     -30.2387    -9.7306     4.0574 Cl     87 CCL4  -0.0812 
 435 CL     -27.4982   -10.0634     4.9393 Cl     87 CCL4  -0.0812 
 436 CL     -32.9506    -8.9354     6.5178 Cl     88 CCL4  -0.0812 
 437 C      -33.2601    -8.0409     8.0205 C.3    88 CCL4   0.3246 
 438 CL     -32.9519    -9.0943     9.4159 Cl     88 CCL4  -0.0812 
 439 CL     -34.9526    -7.5018     8.0510 Cl     88 CCL4  -0.0812 
 440 CL     -32.1864    -6.6300     8.0985 Cl     88 CCL4  -0.0812 
 441 CL     -29.2820   -11.9705    10.5888 Cl     89 CCL4  -0.0812 
 442 C      -29.1046   -10.7914     9.2751 C.3    89 CCL4   0.3246 
 443 CL     -30.3206   -11.1224     8.0296 Cl     89 CCL4  -0.0812 
 444 CL     -27.4805   -10.9192     8.5674 Cl     89 CCL4  -0.0812 
 445 CL     -29.3456    -9.1534     9.9120 Cl     89 CCL4  -0.0812 
 446 CL      14.9507   -12.3988     7.5320 Cl     90 CCL4  -0.0812 
 447 C       13.2058   -12.0994     7.4435 C.3    90 CCL4   0.3246 
 448 CL      12.3454   -13.6532     7.4245 Cl     90 CCL4  -0.0812 
 449 CL      12.8423   -11.1922     5.9606 Cl     90 CCL4  -0.0812 
 450 CL      12.6947   -11.1537     8.8576 Cl     90 CCL4  -0.0812 
 451 CL      -9.9455   -12.9255    17.8399 Cl     91 CCL4  -0.0812 
 452 C      -11.7130   -12.7629    17.9470 C.3    91 CCL4   0.3246 
 453 CL     -12.1236   -11.2911    18.8540 Cl     91 CCL4  -0.0812 
 454 CL     -12.3918   -14.1749    18.7827 Cl     91 CCL4  -0.0812 
 455 CL     -12.4002   -12.6658    16.3122 Cl     91 CCL4  -0.0812 
 456 CL     -10.5527    -9.4976    16.1844 Cl     92 CCL4  -0.0812 
 457 C      -11.0524    -8.8162    14.6263 C.3    92 CCL4   0.3246 
 458 CL     -12.5052    -9.6587    14.0565 Cl     92 CCL4  -0.0812 
 459 CL      -9.7422    -9.0317    13.4527 Cl     92 CCL4  -0.0812 
 460 CL     -11.4055    -7.0855    14.8108 Cl     92 CCL4  -0.0812 
 461 CL     -21.6841   -14.6193     6.7181 Cl     93 CCL4  -0.0812 
 462 C      -23.3458   -14.2879     6.1913 C.3    93 CCL4   0.3246 
 463 CL     -24.2011   -15.8218     5.9201 Cl     93 CCL4  -0.0812 
 464 CL     -23.2973   -13.3538     4.6824 Cl     93 CCL4  -0.0812 
 465 CL     -24.1941   -13.3576     7.4443 Cl     93 CCL4  -0.0812 
 466 CL     -24.2071    -9.6181    20.0779 Cl     94 CCL4  -0.0812 
 467 C      -23.0968   -10.0262    18.7542 C.3    94 CCL4   0.3246 
 468 CL     -23.9625    -9.9741    17.2028 Cl     94 CCL4  -0.0812 
 469 CL     -22.4455   -11.6520    19.0221 Cl     94 CCL4  -0.0812 
 470 CL     -21.7578    -8.8660    18.7203 Cl     94 CCL4  -0.0812 
 471 CL     -23.1494    -3.5801    20.4729 Cl     95 CCL4  -0.0812 
 472 C      -23.0043    -5.2988    20.0647 C.3    95 CCL4   0.3246 
 473 CL     -21.5976    -5.9851    20.8958 Cl     95 CCL4  -0.0812 
 474 CL     -22.8075    -5.4777    18.3109 Cl     95 CCL4  -0.0812 
 475 CL     -24.4662    -6.1530    20.5853 Cl     95 CCL4  -0.0812 
 476 CL     -15.8975    -7.4988    18.6957 Cl     96 CCL4  -0.0812 
 477 C      -14.2842    -7.0597    19.2755 C.3    96 CCL4   0.3246 
 478 CL     -14.1332    -5.2911    19.3117 Cl     96 CCL4  -0.0812 
 479 CL     -13.0577    -7.7434    18.1889 Cl     96 CCL4  -0.0812 
 480 CL     -14.0646    -7.7131    20.9084 Cl     96 CCL4  -0.0812 
 481 CL      14.9824    -9.2167    20.8770 Cl     97 CCL4  -0.0812 
 482 C       16.1136    -8.1509    20.0166 C.3    97 CCL4   0.3246 
 483 CL      17.6492    -9.0022    19.7676 Cl     97 CCL4  -0.0812 
 484 CL      16.3998    -6.6861    20.9796 Cl     97 CCL4  -0.0812 
 485 CL      15.4276    -7.7001    18.4410 Cl     97 CCL4  -0.0812 
 486 CL     -31.5487   -12.4443    20.5239 Cl     98 CCL4  -0.0812 
 487 C      -29.9619   -12.8353    19.8302 C.3    98 CCL4   0.3246 
 488 CL     -29.7695   -14.5978    19.7481 Cl     98 CCL4  -0.0812 
 489 CL     -28.6946   -12.1429    20.8613 Cl     98 CCL4  -0.0812 
 490 CL     -29.8378   -12.1596    18.1919 Cl     98 CCL4  -0.0812 
 491 CL     -15.4133   -12.4030     9.6886 Cl     99 CCL4  -0.0812 
 492 C      -16.2776   -11.7378    11.0846 C.3    99 CCL4   0.3246 
 493 CL     -16.9933   -10.1776    10.6414 Cl     99 CCL4  -0.0812 
 494 CL     -15.1459   -11.5087    12.4323 Cl     99 CCL4  -0.0812 
 495 CL     -17.5585   -12.8644    11.5704 Cl     99 CCL4  -0.0812 
 496 CL     -13.2437   -16.5763     7.6527 Cl    100 CCL4  -0.0812 
 497 C      -12.0181   -15.9134     8.7542 C.3   100 CCL4   0.3246 
 498 CL     -11.9548   -16.8925    10.2355 Cl    100 CCL4  -0.0812 
 499 CL     -12.4401   -14.2403     9.1629 Cl    100 CCL4  -0.0812 
 500 CL     -10.4308   -15.9420     7.9615 Cl    100 CCL4  -0.0812 
 501 CL     -15.1768   -14.4603    14.4160 Cl    101 CCL4  -0.0812 
 502 C      -14.1931   -15.3585    13.2437 C.3   101 CCL4   0.3246 
 503 CL     -15.0820   -15.5246    11.7146 Cl    101 CCL4  -0.0812 
 504 CL     -13.8216   -16.9695    13.8915 Cl    101 CCL4  -0.0812 
 505 CL     -12.6847   -14.4757    12.9544 Cl    101 CCL4  -0.0812 
 506 CL     -14.5871    -7.3150     5.2881 Cl    102 CCL4  -0.0812 
 507 C      -14.7705    -5.5682     5.0357 C.3   102 CCL4   0.3246 
 508 CL     -14.2899    -5.1582     3.3794 Cl    102 CCL4  -0.0812 
 509 CL     -13.7531    -4.6776     6.1834 Cl    102 CCL4  -0.0812 
 510 CL     -16.4603    -5.1088     5.2888 Cl    102 CCL4  -0.0812 
 511 CL     -17.3890    -7.2749    15.4991 Cl    103 CCL4  -0.0812 
 512 C      -16.0989    -6.5925    14.4914 C.3   103 CCL4   0.3246 
 513 CL     -14.7151    -6.1548    15.5091 Cl    103 CCL4  -0.0812 
 514 CL     -16.6917    -5.1370    13.6697 Cl    103 CCL4  -0.0812 
 515 CL     -15.5980    -7.8006    13.2923 Cl    103 CCL4  -0.0812 
 516 CL     -16.1794   -16.5419     5.1285 Cl    104 CCL4  -0.0812 
 517 C      -17.4432   -15.7364     6.0826 C.3   104 CCL4   0.3246 
 518 CL     -16.7720   -15.2401     7.6509 Cl    104 CCL4  -0.0812 
 519 CL     -18.7892   -16.8629     6.3536 Cl    104 CCL4  -0.0812 
 520 CL     -18.0313   -14.3110     5.1985 Cl    104 CCL4  -0.0812 
 521 CL     -18.8609    -6.2626     7.9097 Cl    105 CCL4  -0.0812 
 522 C      -17.4020    -6.2361     8.9182 C.3   105 CCL4   0.3246 
 523 CL     -17.8365    -6.6004    10.5980 Cl    105 CCL4  -0.0812 
 524 CL     -16.6595    -4.6260     8.8366 Cl    105 CCL4  -0.0812 
 525 CL     -16.2534    -7.4554     8.3316 Cl    105 CCL4  -0.0812 
 526 CL     -17.2288    34.1700    14.5582 Cl    106 CCL4  -0.0812 
 527 C      -18.2539    35.5818    14.8893 C.3   106 CCL4   0.3246 
 528 CL     -19.9146    35.0474    15.2186 Cl    106 CCL4  -0.0812 
 529 CL     -18.2474    36.6547    13.4756 Cl    106 CCL4  -0.0812 
 530 CL     -17.6235    36.4510    16.3038 Cl    106 CCL4  -0.0812 
 531 CL     -20.1525   -13.8543    17.1881 Cl    107 CCL4  -0.0812 
 532 C      -20.3040   -13.0943    15.5904 C.3   107 CCL4   0.3246 
 533 CL     -21.2617   -14.1408    14.5217 Cl    107 CCL4  -0.0812 
 534 CL     -18.6914   -12.8480    14.8930 Cl    107 CCL4  -0.0812 
 535 CL     -21.1091   -11.5249    15.7591 Cl    107 CCL4  -0.0812 
 536 CL     -19.5998    -3.3538    18.8804 Cl    108 CCL4  -0.0812 
 537 C      -18.3325    -4.5947    18.9027 C.3   108 CCL4   0.3246 
 538 CL     -17.5478    -4.6122    20.4949 Cl    108 CCL4  -0.0812 
 539 CL     -17.1243    -4.2311    17.6537 Cl    108 CCL4  -0.0812 
 540 CL     -19.0608    -6.1802    18.5797 Cl    108 CCL4  -0.0812 
 541 CL     -19.0130   -12.5432     8.2499 Cl    109 CCL4  -0.0812 
 542 C      -19.9832   -11.2202     7.5794 C.3   109 CCL4   0.3246 
 543 CL     -19.1506    -9.6845     7.8630 Cl    109 CCL4  -0.0812 
 544 CL     -21.5680   -11.1937     8.3730 Cl    109 CCL4  -0.0812 
 545 CL     -20.1972   -11.4529     5.8349 Cl    109 CCL4  -0.0812 
 546 CL     -15.1754   -10.4210    16.6450 Cl    110 CCL4  -0.0812 
 547 C      -16.2695   -11.1963    17.8113 C.3   110 CCL4   0.3246 
 548 CL     -15.7177   -10.8692    19.4692 Cl    110 CCL4  -0.0812 
 549 CL     -16.2731   -12.9513    17.5454 Cl    110 CCL4  -0.0812 
 550 CL     -17.9109   -10.5528    17.5863 Cl    110 CCL4  -0.0812 
 551 CL     -20.6732    -8.7548    10.8532 Cl    111 CCL4  -0.0812 
 552 C      -20.7116    -9.7419    12.3266 C.3   111 CCL4   0.3246 
 553 CL     -22.1344    -9.2952    13.2843 Cl    111 CCL4  -0.0812 
 554 CL     -19.2403    -9.4562    13.2800 Cl    111 CCL4  -0.0812 
 555 CL     -20.8061   -11.4595    11.8894 Cl    111 CCL4  -0.0812 
 556 CL     -20.3964    -5.9700    13.0754 Cl    112 CCL4  -0.0812 
 557 C      -20.9510    -5.6178    14.7217 C.3   112 CCL4   0.3246 
 558 CL     -19.8531    -4.4492    15.4754 Cl    112 CCL4  -0.0812 
 559 CL     -20.9769    -7.1122    15.6775 Cl    112 CCL4  -0.0812 
 560 CL     -22.5809    -4.9310    14.6557 Cl    112 CCL4  -0.0812 
 561 CL      13.8196    10.7483   -14.3716 Cl    113 CCL4  -0.0812 
 562 C       14.7917    11.0964   -12.9261 C.3   113 CCL4   0.3246 
 563 CL      13.9700    12.3356   -11.9524 Cl    113 CCL4  -0.0812 
 564 CL      16.3957    11.6882   -13.4100 Cl    113 CCL4  -0.0812 
 565 CL      14.9800     9.6113   -11.9707 Cl    113 CCL4  -0.0812 
 566 CL     -20.5589     7.1986   -17.1660 Cl    114 CCL4  -0.0812 
 567 C      -20.8774     7.1623   -15.4191 C.3   114 CCL4   0.3246 
 568 CL     -21.4739     5.5536   -14.9597 Cl    114 CCL4  -0.0812 
 569 CL     -22.0938     8.3868   -15.0027 Cl    114 CCL4  -0.0812 
 570 CL     -19.3760     7.5142   -14.5444 Cl    114 CCL4  -0.0812 
 571 CL     -23.8293    -1.5308   -10.4238 Cl    115 CCL4  -0.0812 
 572 C      -23.4074    -0.8469   -12.0016 C.3   115 CCL4   0.3246 
 573 CL     -23.8850    -1.9856   -13.2782 Cl    115 CCL4  -0.0812 
 574 CL     -21.6575    -0.5627   -12.0711 Cl    115 CCL4  -0.0812 
 575 CL     -24.2606     0.6919   -12.2208 Cl    115 CCL4  -0.0812 
 576 CL     -30.6279     8.2794   -10.1325 Cl    116 CCL4  -0.0812 
 577 C      -30.7095     6.9301   -11.2825 C.3   116 CCL4   0.3246 
 578 CL     -29.4722     5.7230   -10.8743 Cl    116 CCL4  -0.0812 
 579 CL     -30.4251     7.5451   -12.9225 Cl    116 CCL4  -0.0812 
 580 CL     -32.3149     6.1749   -11.2016 Cl    116 CCL4  -0.0812 
 581 CL     -25.5185    -4.1707     3.3428 Cl    117 CCL4  -0.0812 
 582 C      -24.5159    -3.0314     4.2676 C.3   117 CCL4   0.3246 
 583 CL     -23.1177    -3.8877     4.9501 Cl    117 CCL4  -0.0812 
 584 CL     -25.4665    -2.3176     5.5862 Cl    117 CCL4  -0.0812 
 585 CL     -23.9556    -1.7411     3.1894 Cl    117 CCL4  -0.0812 
 586 CL     -22.0971     1.3283     3.7077 Cl    118 CCL4  -0.0812 
 587 C      -23.5745     2.1031     3.1018 C.3   118 CCL4   0.3246 
 588 CL     -23.8113     1.6537     1.4017 Cl    118 CCL4  -0.0812 
 589 CL     -23.4092     3.8665     3.2345 Cl    118 CCL4  -0.0812 
 590 CL     -24.9726     1.5622     4.0576 Cl    118 CCL4  -0.0812 
 591 CL     -11.4406    18.2855     4.0369 Cl    119 CCL4  -0.0812 
 592 C      -11.0368    18.5571     2.3304 C.3   119 CCL4   0.3246 
 593 CL     -10.1285    20.0710     2.1780 Cl    119 CCL4  -0.0812 
 594 CL     -12.5333    18.6660     1.3843 Cl    119 CCL4  -0.0812 
 595 CL     -10.0444    17.2151     1.7243 Cl    119 CCL4  -0.0812 
 596 CL     -29.1268    16.8093   -10.7409 Cl    120 CCL4  -0.0812 
 597 C      -28.6110    18.4900   -10.9863 C.3   120 CCL4   0.3246 
 598 CL     -29.7290    19.5720   -10.1301 Cl    120 CCL4  -0.0812 
 599 CL     -28.6240    18.8643   -12.7182 Cl    120 CCL4  -0.0812 
 600 CL     -26.9631    18.7172   -10.3670 Cl    120 CCL4  -0.0812 
 601 CL     -25.8320     6.1724   -11.5524 Cl    121 CCL4  -0.0812 
 602 C      -25.1649     4.5374   -11.4461 C.3   121 CCL4   0.3246 
 603 CL     -23.9640     4.4651   -10.1419 Cl    121 CCL4  -0.0812 
 604 CL     -24.3936     4.1322   -12.9893 Cl    121 CCL4  -0.0812 
 605 CL     -26.4765     3.3929   -11.1065 Cl    121 CCL4  -0.0812 
 606 CL     -28.2341    -1.2327   -16.0620 Cl    122 CCL4  -0.0812 
 607 C      -29.9755    -1.3254   -15.7248 C.3   122 CCL4   0.3246 
 608 CL     -30.2668    -2.4504   -14.3798 Cl    122 CCL4  -0.0812 
 609 CL     -30.8275    -1.8974   -17.1742 Cl    122 CCL4  -0.0812 
 610 CL     -30.5802     0.2848   -15.2881 Cl    122 CCL4  -0.0812 
 611 CL     -24.8021    -1.1594    -7.0013 Cl    123 CCL4  -0.0812 
 612 C      -25.4703    -2.8012    -6.9382 C.3   123 CCL4   0.3246 
 613 CL     -24.4271    -3.9113    -7.8504 Cl    123 CCL4  -0.0812 
 614 CL     -27.0968    -2.7923    -7.6447 Cl    123 CCL4  -0.0812 
 615 CL     -25.5602    -3.3382    -5.2504 Cl    123 CCL4  -0.0812 
 616 CL     -27.5249    -0.7651   -12.5557 Cl    124 CCL4  -0.0812 
 617 C      -28.3224    -0.2912   -11.0434 C.3   124 CCL4   0.3246 
 618 CL     -27.0903     0.0884    -9.8218 Cl    124 CCL4  -0.0812 
 619 CL     -29.3383    -1.6262   -10.4653 Cl    124 CCL4  -0.0812 
 620 CL     -29.3387     1.1351   -11.3342 Cl    124 CCL4  -0.0812 
 621 CL     -11.8913    11.8307   -16.9660 Cl    125 CCL4  -0.0812 
 622 C      -11.7810    13.5179   -16.4301 C.3   125 CCL4   0.3246 
 623 CL     -10.3469    13.7315   -15.4089 Cl    125 CCL4  -0.0812 
 624 CL     -13.2367    13.9343   -15.5094 Cl    125 CCL4  -0.0812 
 625 CL     -11.6509    14.5790   -17.8418 Cl    125 CCL4  -0.0812 
 626 CL     -21.0270    18.4694   -16.5147 Cl    126 CCL4  -0.0812 
 627 C      -22.3320    17.9657   -15.4233 C.3   126 CCL4   0.3246 
 628 CL     -22.7212    16.2642   -15.7190 Cl    126 CCL4  -0.0812 
 629 CL     -23.7695    18.9584   -15.7184 Cl    126 CCL4  -0.0812 
 630 CL     -21.8177    18.1635   -13.7391 Cl    126 CCL4  -0.0812 
 631 CL     -29.1552    16.5961    23.6136 Cl    127 CCL4  -0.0812 
 632 C      -27.6479    17.3449    23.0467 C.3   127 CCL4   0.3246 
 633 CL     -27.3457    18.8298    23.9652 Cl    127 CCL4  -0.0812 
 634 CL     -27.7994    17.7316    21.3209 Cl    127 CCL4  -0.0812 
 635 CL     -26.2883    16.2285    23.2889 Cl    127 CCL4  -0.0812 
 636 CL     -10.7904    -3.2971    24.2184 Cl    128 CCL4  -0.0812 
 637 C      -10.6205    -3.8181    22.5282 C.3   128 CCL4   0.3246 
 638 CL     -11.9668    -4.8838    22.0956 Cl    128 CCL4  -0.0812 
 639 CL      -9.0955    -4.6996    22.3300 Cl    128 CCL4  -0.0812 
 640 CL     -10.6336    -2.4013    21.4607 Cl    128 CCL4  -0.0812 
 641 CL     -27.4107     5.6887     4.2572 Cl    129 CCL4  -0.0812 
 642 C      -27.2215     5.6843     2.4928 C.3   129 CCL4   0.3246 
 643 CL     -25.9911     6.8794     2.0330 Cl    129 CCL4  -0.0812 
 644 CL     -28.7766     6.0812     1.7309 Cl    129 CCL4  -0.0812 
 645 CL     -26.7040     4.0784     1.9510 Cl    129 CCL4  -0.0812 
 646 CL     -33.9011     7.9107     3.5764 Cl    130 CCL4  -0.0812 
 647 C      -33.3109     6.9173     2.2268 C.3   130 CCL4   0.3246 
 648 CL     -32.4471     5.5053     2.8665 Cl    130 CCL4  -0.0812 
 649 CL     -32.2040     7.8716     1.2205 Cl    130 CCL4  -0.0812 
 650 CL     -34.6870     6.3821     1.2401 Cl    130 CCL4  -0.0812 
 651 CL     -24.6459     3.4525    23.5617 Cl    131 CCL4  -0.0812 
 652 C      -23.8169     1.8841    23.6527 C.3   131 CCL4   0.3246 
 653 CL     -24.9655     0.6330    24.1716 Cl    131 CCL4  -0.0812 
 654 CL     -22.4806     1.9720    24.8147 Cl    131 CCL4  -0.0812 
 655 CL     -23.1662     1.4723    22.0567 Cl    131 CCL4  -0.0812 
 656 CL     -25.3009     9.0672    22.4988 Cl    132 CCL4  -0.0812 
 657 C      -26.1557     7.6617    23.1561 C.3   132 CCL4   0.3246 
 658 CL     -27.8041     8.1450    23.6023 Cl    132 CCL4  -0.0812 
 659 CL     -25.2909     7.0723    24.5902 Cl    132 CCL4  -0.0812 
 660 CL     -26.2234     6.3745    21.9331 Cl    132 CCL4  -0.0812 
 661 CL     -33.4756     7.4723    22.2432 Cl    133 CCL4  -0.0812 
 662 C      -32.4437     7.6792    23.6741 C.3   133 CCL4   0.3246 
 663 CL     -33.3516     7.2039    25.1242 Cl    133 CCL4  -0.0812 
 664 CL     -31.9403     9.3766    23.8136 Cl    133 CCL4  -0.0812 
 665 CL     -31.0035     6.6574    23.5182 Cl    133 CCL4  -0.0812 
 666 CL     -27.7468     2.3714   -14.3553 Cl    134 CCL4  -0.0812 
 667 C      -28.7387     3.7717   -14.8050 C.3   134 CCL4   0.3246 
 668 CL     -27.9501     5.2507   -14.2359 Cl    134 CCL4  -0.0812 
 669 CL     -30.3445     3.6461   -14.0552 Cl    134 CCL4  -0.0812 
 670 CL     -28.9028     3.8303   -16.5718 Cl    134 CCL4  -0.0812 
 671 CL      -9.6668     7.1838   -11.3471 Cl    135 CCL4  -0.0812 
 672 C       -9.4013     5.4451   -11.6045 C.3   135 CCL4   0.3246 
 673 CL     -10.7939     4.5324   -10.9885 Cl    135 CCL4  -0.0812 
 674 CL      -7.9351     4.9354   -10.7466 Cl    135 CCL4  -0.0812 
 675 CL      -9.2044     5.1221   -13.3376 Cl    135 CCL4  -0.0812 
 676 CL      -9.5590    -1.0833   -12.7448 Cl    136 CCL4  -0.0812 
 677 C      -10.5033     0.3904   -12.4383 C.3   136 CCL4   0.3246 
 678 CL     -10.0354     1.6431   -13.5994 Cl    136 CCL4  -0.0812 
 679 CL     -10.1891     0.9783   -10.7954 Cl    136 CCL4  -0.0812 
 680 CL     -12.2317     0.0343   -12.6153 Cl    136 CCL4  -0.0812 
 681 CL     -11.9899     6.1026    -6.1299 Cl    137 CCL4  -0.0812 
 682 C      -11.6481     4.4168    -6.5497 C.3   137 CCL4   0.3246 
 683 CL     -12.7554     3.8835    -7.8327 Cl    137 CCL4  -0.0812 
 684 CL     -11.8628     3.4080    -5.1044 Cl    137 CCL4  -0.0812 
 685 CL      -9.9767     4.2862    -7.1258 Cl    137 CCL4  -0.0812 
 686 CL     -33.5414    17.7218    -9.3424 Cl    138 CCL4  -0.0812 
 687 C      -33.8490    15.9875    -9.5769 C.3   138 CCL4   0.3246 
 688 CL     -35.4834    15.7538   -10.2319 Cl    138 CCL4  -0.0812 
 689 CL     -33.7133    15.1431    -8.0189 Cl    138 CCL4  -0.0812 
 690 CL     -32.6569    15.3294   -10.7161 Cl    138 CCL4  -0.0812 
 691 CL     -11.8435     0.3942    23.6662 Cl    139 CCL4  -0.0812 
 692 C      -11.8418     1.7019    22.4655 C.3   139 CCL4   0.3246 
 693 CL     -10.5788     2.8820    22.8756 Cl    139 CCL4  -0.0812 
 694 CL     -13.4279     2.4977    22.4695 Cl    139 CCL4  -0.0812 
 695 CL     -11.5224     1.0342    20.8509 Cl    139 CCL4  -0.0812 
 696 CL     -28.4578     0.3603    -2.1007 Cl    140 CCL4  -0.0812 
 697 C      -29.2112    -0.7083    -3.2955 C.3   140 CCL4   0.3246 
 698 CL     -30.7715    -0.0270    -3.7931 Cl    140 CCL4  -0.0812 
 699 CL     -29.4697    -2.3075    -2.5747 Cl    140 CCL4  -0.0812 
 700 CL     -28.1464    -0.8553    -4.7073 Cl    140 CCL4  -0.0812 
 701 CL     -23.7893    -3.5849     0.0169 Cl    141 CCL4  -0.0812 
 702 C      -22.0443    -3.3642     0.2514 C.3   141 CCL4   0.3246 
 703 CL     -21.6931    -1.6399     0.4957 Cl    141 CCL4  -0.0812 
 704 CL     -21.1722    -3.9531    -1.1778 Cl    141 CCL4  -0.0812 
 705 CL     -21.5235    -4.2870     1.6735 Cl    141 CCL4  -0.0812 
 706 CL     -22.7535     4.7146    -0.5795 Cl    142 CCL4  -0.0812 
 707 C      -21.0132     4.3860    -0.7220 C.3   142 CCL4   0.3246 
 708 CL     -20.5533     3.1217     0.4382 Cl    142 CCL4  -0.0812 
 709 CL     -20.1033     5.8687    -0.3792 Cl    142 CCL4  -0.0812 
 710 CL     -20.6319     3.8463    -2.3698 Cl    142 CCL4  -0.0812 
 711 CL      -8.9418     1.1332    -5.0701 Cl    143 CCL4  -0.0812 
 712 C       -9.5366    -0.0084    -6.2917 C.3   143 CCL4   0.3246 
 713 CL      -8.1677    -0.6506    -7.2245 Cl    143 CCL4  -0.0812 
 714 CL     -10.6617     0.8287    -7.3742 Cl    143 CCL4  -0.0812 
 715 CL     -10.3899    -1.3422    -5.4949 Cl    143 CCL4  -0.0812 
 716 CL     -32.8416    -2.0674    -0.8272 Cl    144 CCL4  -0.0812 
 717 C      -32.5267    -3.8024    -0.6153 C.3   144 CCL4   0.3246 
 718 CL     -33.8302    -4.5293     0.3483 Cl    144 CCL4  -0.0812 
 719 CL     -30.9821    -4.0206     0.2296 Cl    144 CCL4  -0.0812 
 720 CL     -32.4531    -4.5919    -2.2065 Cl    144 CCL4  -0.0812 
 721 CL     -24.8659     3.5692    -6.7061 Cl    145 CCL4  -0.0812 
 722 C      -23.9497     4.6604    -5.6450 C.3   145 CCL4   0.3246 
 723 CL     -22.4356     5.1379    -6.4420 Cl    145 CCL4  -0.0812 
 724 CL     -23.5812     3.8340    -4.1242 Cl    145 CCL4  -0.0812 
 725 CL     -24.9196     6.1001    -5.2883 Cl    145 CCL4  -0.0812 
 726 CL     -24.6437     7.6190    -8.4697 Cl    146 CCL4  -0.0812 
 727 C      -26.3865     7.8543    -8.2165 C.3   146 CCL4   0.3246 
 728 CL     -26.6676     8.7727    -6.7197 Cl    146 CCL4  -0.0812 
 729 CL     -27.1828     6.2725    -8.1094 Cl    146 CCL4  -0.0812 
 730 CL     -27.0596     8.7508    -9.5867 Cl    146 CCL4  -0.0812 
 731 CL     -19.7478     1.3124    -7.8688 Cl    147 CCL4  -0.0812 
 732 C      -21.3913     0.6886    -7.6487 C.3   147 CCL4   0.3246 
 733 CL     -22.4631     1.3907    -8.8777 Cl    147 CCL4  -0.0812 
 734 CL     -21.9766     1.1323    -6.0321 Cl    147 CCL4  -0.0812 
 735 CL     -21.3691    -1.0777    -7.8153 Cl    147 CCL4  -0.0812 
 736 CL     -27.6956    16.0561    -2.0814 Cl    148 CCL4  -0.0812 
 737 C      -27.5374    17.6633    -1.3504 C.3   148 CCL4   0.3246 
 738 CL     -26.9721    17.4890     0.3210 Cl    148 CCL4  -0.0812 
 739 CL     -29.1124    18.4855    -1.3693 Cl    148 CCL4  -0.0812 
 740 CL     -26.3619    18.6164    -2.2729 Cl    148 CCL4  -0.0812 
 741 CL     -22.7158     0.9880    -2.0591 Cl    149 CCL4  -0.0812 
 742 C      -23.9131    -0.1784    -2.6540 C.3   149 CCL4   0.3246 
 743 CL     -24.8767     0.5514    -3.9532 Cl    149 CCL4  -0.0812 
 744 CL     -24.9914    -0.6487    -1.3290 Cl    149 CCL4  -0.0812 
 745 CL     -23.0704    -1.6115    -3.2695 Cl    149 CCL4  -0.0812 
 746 CL     -19.5466     7.8904    -5.1250 Cl    150 CCL4  -0.0812 
 747 C      -18.3300     7.7631    -3.8372 C.3   150 CCL4   0.3246 
 748 CL     -18.0160     6.0531    -3.4750 Cl    150 CCL4  -0.0812 
 749 CL     -18.9348     8.5788    -2.3817 Cl    150 CCL4  -0.0812 
 750 CL     -16.8192     8.5315    -4.3654 Cl    150 CCL4  -0.0812 
 751 CL     -28.5367     3.8092    -1.2129 Cl    151 CCL4  -0.0812 
 752 C      -27.0138     3.9620    -2.1097 C.3   151 CCL4   0.3246 
 753 CL     -27.2814     3.5091    -3.8075 Cl    151 CCL4  -0.0812 
 754 CL     -25.8048     2.8854    -1.3892 Cl    151 CCL4  -0.0812 
 755 CL     -26.4311     5.6377    -2.0190 Cl    151 CCL4  -0.0812 
 756 CL     -13.8482     6.5318    -3.1271 Cl    152 CCL4  -0.0812 
 757 C      -12.5245     6.3169    -1.9615 C.3   152 CCL4   0.3246 
 758 CL     -11.0497     7.0831    -2.5830 Cl    152 CCL4  -0.0812 
 759 CL     -12.2316     4.5862    -1.6957 Cl    152 CCL4  -0.0812 
 760 CL     -12.9657     7.0667    -0.4192 Cl    152 CCL4  -0.0812 
 761 CL     -28.3915     2.8936    -7.8450 Cl    153 CCL4  -0.0812 
 762 C      -30.0098     2.2528    -7.4964 C.3   153 CCL4   0.3246 
 763 CL     -31.1542     2.8228    -8.7301 Cl    153 CCL4  -0.0812 
 764 CL     -30.5317     2.8146    -5.8942 Cl    153 CCL4  -0.0812 
 765 CL     -29.9604     0.4783    -7.5160 Cl    153 CCL4  -0.0812 
 766 CL     -13.3223    -0.9276    -9.0860 Cl    154 CCL4  -0.0812 
 767 C      -12.4763    -2.4641    -9.3529 C.3   154 CCL4   0.3246 
 768 CL     -12.9111    -3.6087    -8.0679 Cl    154 CCL4  -0.0812 
 769 CL     -10.7268    -2.1860    -9.3250 Cl    154 CCL4  -0.0812 
 770 CL     -12.9335    -3.1307   -10.9326 Cl    154 CCL4  -0.0812 
 771 CL     -10.4307    17.5773    -5.1742 Cl    155 CCL4  -0.0812 
 772 C      -10.2653    17.3831    -6.9320 C.3   155 CCL4   0.3246 
 773 CL      -9.6871    18.9018    -7.6494 Cl    155 CCL4  -0.0812 
 774 CL     -11.8342    16.9484    -7.6348 Cl    155 CCL4  -0.0812 
 775 CL      -9.1052    16.0906    -7.2771 Cl    155 CCL4  -0.0812 
 776 CL     -27.4291    -2.2206     0.7052 Cl    156 CCL4  -0.0812 
 777 C      -28.1324    -0.8825     1.6323 C.3   156 CCL4   0.3246 
 778 CL     -27.9269    -1.1983     3.3631 Cl    156 CCL4  -0.0812 
 779 CL     -29.8601    -0.7473     1.2519 Cl    156 CCL4  -0.0812 
 780 CL     -27.3132     0.6342     1.2161 Cl    156 CCL4  -0.0812 
 781 CL     -33.9869    -0.5409     5.3835 Cl    157 CCL4  -0.0812 
 782 C      -32.7777     0.2125     4.3211 C.3   157 CCL4   0.3246 
 783 CL     -32.8058     1.9770     4.5275 Cl    157 CCL4  -0.0812 
 784 CL     -33.1484    -0.1975     2.6336 Cl    157 CCL4  -0.0812 
 785 CL     -31.1636    -0.3941     4.7372 Cl    157 CCL4  -0.0812 
 786 CL     -25.4034    10.9551   -14.4799 Cl    158 CCL4  -0.0812 
 787 C      -25.8715    10.2876   -12.9056 C.3   158 CCL4   0.3246 
 788 CL     -27.3303     9.2961   -13.0950 Cl    158 CCL4  -0.0812 
 789 CL     -26.2012    11.6056   -11.7641 Cl    158 CCL4  -0.0812 
 790 CL     -24.5461     9.2911   -12.2832 Cl    158 CCL4  -0.0812 
 791 CL     -25.6526    15.5552    -5.3971 Cl    159 CCL4  -0.0812 
 792 C      -25.9542    15.1694    -7.1054 C.3   159 CCL4   0.3246 
 793 CL     -26.7964    13.6166    -7.2500 Cl    159 CCL4  -0.0812 
 794 CL     -24.4103    15.0743    -7.9710 Cl    159 CCL4  -0.0812 
 795 CL     -26.9664    16.4334    -7.8192 Cl    159 CCL4  -0.0812 
 796 CL     -29.5362    13.1192   -11.0623 Cl    160 CCL4  -0.0812 
 797 C      -30.1593    12.5891    -9.4857 C.3   160 CCL4   0.3246 
 798 CL     -29.0778    11.3635    -8.8035 Cl    160 CCL4  -0.0812 
 799 CL     -31.7787    11.8935    -9.6922 Cl    160 CCL4  -0.0812 
 800 CL     -30.2429    13.9728    -8.3783 Cl    160 CCL4  -0.0812 
 801 CL     -10.9219    10.0663     0.0178 Cl    161 CCL4  -0.0812 
 802 C      -10.9379    10.1749     1.7904 C.3   161 CCL4   0.3246 
 803 CL     -11.6937     8.7211     2.4658 Cl    161 CCL4  -0.0812 
 804 CL     -11.8694    11.5980     2.2953 Cl    161 CCL4  -0.0812 
 805 CL      -9.2702    10.3089     2.3878 Cl    161 CCL4  -0.0812 
 806 CL     -24.8446    14.3165   -13.7211 Cl    162 CCL4  -0.0812 
 807 C      -25.9570    15.4185   -12.8888 C.3   162 CCL4   0.3246 
 808 CL     -25.9305    15.0920   -11.1457 Cl    162 CCL4  -0.0812 
 809 CL     -27.6017    15.1728   -13.5079 Cl    162 CCL4  -0.0812 
 810 CL     -25.4509    17.0935   -13.1805 Cl    162 CCL4  -0.0812 
 811 CL     -30.5883    20.0462    -6.2712 Cl    163 CCL4  -0.0812 
 812 C      -30.2552    18.3523    -5.8569 C.3   163 CCL4   0.3246 
 813 CL     -31.4363    17.7858    -4.6595 Cl    163 CCL4  -0.0812 
 814 CL     -28.6166    18.2201    -5.1836 Cl    163 CCL4  -0.0812 
 815 CL     -30.3865    17.3557    -7.3184 Cl    163 CCL4  -0.0812 
 816 CL     -33.1470    16.7742   -16.3196 Cl    164 CCL4  -0.0812 
 817 C      -33.3797    15.5636   -15.0402 C.3   164 CCL4   0.3246 
 818 CL     -34.0339    14.0732   -15.7482 Cl    164 CCL4  -0.0812 
 819 CL     -34.5286    16.1860   -13.8366 Cl    164 CCL4  -0.0812 
 820 CL     -31.8198    15.2194   -14.2612 Cl    164 CCL4  -0.0812 
 821 CL     -28.0520    11.1178   -18.5729 Cl    165 CCL4  -0.0812 
 822 C      -27.5864    12.6068   -17.7253 C.3   165 CCL4   0.3246 
 823 CL     -28.1625    14.0046   -18.6498 Cl    165 CCL4  -0.0812 
 824 CL     -25.8185    12.6921   -17.5796 Cl    165 CCL4  -0.0812 
 825 CL     -28.3183    12.6220   -16.1061 Cl    165 CCL4  -0.0812 
 826 CL     -11.1782     8.9142    -7.9698 Cl    166 CCL4  -0.0812 
 827 C      -12.4968     9.7570    -7.1276 C.3   166 CCL4   0.3246 
 828 CL     -12.0973     9.9171    -5.4055 Cl    166 CCL4  -0.0812 
 829 CL     -13.9991     8.8303    -7.2953 Cl    166 CCL4  -0.0812 
 830 CL     -12.7196    11.3671    -7.8397 Cl    166 CCL4  -0.0812 
 831 CL     -10.1560    11.0630   -10.5163 Cl    167 CCL4  -0.0812 
 832 C      -10.4505    12.6817   -11.1772 C.3   167 CCL4   0.3246 
 833 CL     -11.8333    12.6224   -12.2876 Cl    167 CCL4  -0.0812 
 834 CL      -9.0097    13.2235   -12.0582 Cl    167 CCL4  -0.0812 
 835 CL     -10.7997    13.8115    -9.8509 Cl    167 CCL4  -0.0812 
 836 CL     -21.5795    15.4633    -0.6024 Cl    168 CCL4  -0.0812 
 837 C      -23.1781    14.8702    -0.1137 C.3   168 CCL4   0.3246 
 838 CL     -23.0417    13.1829     0.4193 Cl    168 CCL4  -0.0812 
 839 CL     -24.2962    14.9645    -1.4905 Cl    168 CCL4  -0.0812 
 840 CL     -23.7899    15.8691     1.2207 Cl    168 CCL4  -0.0812 
 841 CL     -24.2052    11.9798    -5.4605 Cl    169 CCL4  -0.0812 
 842 C      -23.3444    11.3165    -6.8603 C.3   169 CCL4   0.3246 
 843 CL     -24.4726    11.1439    -8.2208 Cl    169 CCL4  -0.0812 
 844 CL     -22.6624     9.7350    -6.4247 Cl    169 CCL4  -0.0812 
 845 CL     -22.0364    12.4170    -7.3282 Cl    169 CCL4  -0.0812 
 846 CL     -19.5426    14.1309    -5.5965 Cl    170 CCL4  -0.0812 
 847 C      -19.9813    13.2288    -4.1343 C.3   170 CCL4   0.3246 
 848 CL     -21.6692    13.5667    -3.7063 Cl    170 CCL4  -0.0812 
 849 CL     -18.9342    13.7318    -2.7980 Cl    170 CCL4  -0.0812 
 850 CL     -19.7743    11.4908    -4.4292 Cl    170 CCL4  -0.0812 
 851 CL     -27.7976     8.6383    -0.5116 Cl    171 CCL4  -0.0812 
 852 C      -29.1285     8.6414    -1.6844 C.3   171 CCL4   0.3246 
 853 CL     -30.3785     9.7880    -1.1682 Cl    171 CCL4  -0.0812 
 854 CL     -29.8358     7.0197    -1.7836 Cl    171 CCL4  -0.0812 
 855 CL     -28.5076     9.1173    -3.2764 Cl    171 CCL4  -0.0812 
 856 CL     -29.2615    14.6788    -4.8494 Cl    172 CCL4  -0.0812 
 857 C      -28.9663    13.0801    -4.1361 C.3   172 CCL4   0.3246 
 858 CL     -29.5918    11.8355    -5.2298 Cl    172 CCL4  -0.0812 
 859 CL     -29.7771    12.9685    -2.5631 Cl    172 CCL4  -0.0812 
 860 CL     -27.2291    12.8297    -3.9029 Cl    172 CCL4  -0.0812 
 861 CL     -10.7764    15.6723    -1.8531 Cl    173 CCL4  -0.0812 
 862 C      -11.3151    14.3360    -0.8175 C.3   173 CCL4   0.3246 
 863 CL     -11.9697    13.0383    -1.8308 Cl    173 CCL4  -0.0812 
 864 CL     -12.5735    14.9083     0.2962 Cl    173 CCL4  -0.0812 
 865 CL      -9.9372    13.7191     0.1136 Cl    173 CCL4  -0.0812 
 866 CL     -21.5042    19.2668    -5.1958 Cl    174 CCL4  -0.0812 
 867 C      -21.7408    17.6717    -4.4582 C.3   174 CCL4   0.3246 
 868 CL     -20.2606    17.1675    -3.6177 Cl    174 CCL4  -0.0812 
 869 CL     -22.1347    16.4986    -5.7245 Cl    174 CCL4  -0.0812 
 870 CL     -23.0784    17.7509    -3.3004 Cl    174 CCL4  -0.0812 
 871 CL     -31.6954    15.8357    -1.6181 Cl    175 CCL4  -0.0812 
 872 C      -31.6327    15.2993     0.0721 C.3   175 CCL4   0.3246 
 873 CL     -32.1285    13.5956     0.1755 Cl    175 CCL4  -0.0812 
 874 CL     -32.7288    16.2990     1.0496 Cl    175 CCL4  -0.0812 
 875 CL     -29.9735    15.4704     0.6778 Cl    175 CCL4  -0.0812 
 876 CL     -26.2655    11.8149    -0.8019 Cl    176 CCL4  -0.0812 
 877 C      -26.8041    12.1703     0.8498 C.3   176 CCL4   0.3246 
 878 CL     -25.8346    11.2147     1.9914 Cl    176 CCL4  -0.0812 
 879 CL     -28.5243    11.7698     1.0223 Cl    176 CCL4  -0.0812 
 880 CL     -26.5918    13.8967     1.1823 Cl    176 CCL4  -0.0812 
 881 CL     -23.9341     8.3741    -0.5865 Cl    177 CCL4  -0.0812 
 882 C      -23.4519     8.8461    -2.2287 C.3   177 CCL4   0.3246 
 883 CL     -22.4927     7.5426    -2.9620 Cl    177 CCL4  -0.0812 
 884 CL     -22.4794    10.3298    -2.1561 Cl    177 CCL4  -0.0812 
 885 CL     -24.9019     9.1394    -3.2104 Cl    177 CCL4  -0.0812 
 886 CL     -16.2662    14.9830    -4.9800 Cl    178 CCL4  -0.0812 
 887 C      -14.5827    14.5057    -5.2601 C.3   178 CCL4   0.3246 
 888 CL     -13.4996    15.7095    -4.5391 Cl    178 CCL4  -0.0812 
 889 CL     -14.2865    14.4127    -7.0043 Cl    178 CCL4  -0.0812 
 890 CL     -14.2811    12.9217    -4.5200 Cl    178 CCL4  -0.0812 
 891 CL      15.8451    11.0971    -3.5466 Cl    179 CCL4  -0.0812 
 892 C       15.1658    12.2080    -4.7529 C.3   179 CCL4   0.3246 
 893 CL      15.7805    13.8505    -4.4784 Cl    179 CCL4  -0.0812 
 894 CL      13.4000    12.2135    -4.6082 Cl    179 CCL4  -0.0812 
 895 CL      15.6314    11.6699    -6.3785 Cl    179 CCL4  -0.0812 
 896 CL     -31.9970     7.1344    -4.6987 Cl    180 CCL4  -0.0812 
 897 C      -30.7641     7.0215    -5.9709 C.3   180 CCL4   0.3246 
 898 CL     -31.3968     6.0705    -7.3288 Cl    180 CCL4  -0.0812 
 899 CL     -29.3128     6.2319    -5.3182 Cl    180 CCL4  -0.0812 
 900 CL     -30.3537     8.6506    -6.5405 Cl    180 CCL4  -0.0812 
 901 CL     -19.6949    11.5590    -0.0314 Cl    181 CCL4  -0.0812 
 902 C      -19.8741    10.5569     1.4231 C.3   181 CCL4   0.3246 
 903 CL     -18.9431     9.0601     1.2307 Cl    181 CCL4  -0.0812 
 904 CL     -21.5870    10.1560     1.6609 Cl    181 CCL4  -0.0812 
 905 CL     -19.2691    11.4478     2.8343 Cl    181 CCL4  -0.0812 
 906 CL     -16.3181     8.6258   -16.0927 Cl    182 CCL4  -0.0812 
 907 C      -16.0036    10.1464   -15.2323 C.3   182 CCL4   0.3246 
 908 CL     -16.1638    11.5035   -16.3655 Cl    182 CCL4  -0.0812 
 909 CL     -14.3560    10.1281   -14.5719 Cl    182 CCL4  -0.0812 
 910 CL     -17.1720    10.3256   -13.9046 Cl    182 CCL4  -0.0812 
 911 CL     -18.9915     5.1243   -12.0851 Cl    183 CCL4  -0.0812 
 912 C      -19.6657     3.7175   -11.2451 C.3   183 CCL4   0.3246 
 913 CL     -20.3247     4.2245    -9.6829 Cl    183 CCL4  -0.0812 
 914 CL     -18.3793     2.5243   -10.9961 Cl    183 CCL4  -0.0812 
 915 CL     -20.9693     3.0018   -12.2089 Cl    183 CCL4  -0.0812 
 916 CL     -14.1378     5.8575    23.3772 Cl    184 CCL4  -0.0812 
 917 C      -12.6219     6.5789    22.8044 C.3   184 CCL4   0.3246 
 918 CL     -11.3169     6.1858    23.9373 Cl    184 CCL4  -0.0812 
 919 CL     -12.8075     8.3404    22.7172 Cl    184 CCL4  -0.0812 
 920 CL     -12.2259     5.9362    21.1953 Cl    184 CCL4  -0.0812 
 921 CL     -15.1408     1.7394   -14.1328 Cl    185 CCL4  -0.0812 
 922 C      -14.5219     3.1835   -13.3031 C.3   185 CCL4   0.3246 
 923 CL     -14.3352     2.8493   -11.5692 Cl    185 CCL4  -0.0812 
 924 CL     -15.6632     4.5251   -13.5227 Cl    185 CCL4  -0.0812 
 925 CL     -12.9462     3.6257   -13.9896 Cl    185 CCL4  -0.0812 
 926 CL     -13.3607     9.3987   -11.1085 Cl    186 CCL4  -0.0812 
 927 C      -13.9050     7.7463   -11.4650 C.3   186 CCL4   0.3246 
 928 CL     -15.6644     7.7419   -11.7119 Cl    186 CCL4  -0.0812 
 929 CL     -13.4964     6.6851   -10.1027 Cl    186 CCL4  -0.0812 
 930 CL     -13.0954     7.1564   -12.9321 Cl    186 CCL4  -0.0812 
 931 CL     -17.6749     4.9075   -16.6484 Cl    187 CCL4  -0.0812 
 932 C      -18.3316     3.2592   -16.5919 C.3   187 CCL4   0.3246 
 933 CL     -19.8295     3.1861   -17.5409 Cl    187 CCL4  -0.0812 
 934 CL     -18.6802     2.8246   -14.9095 Cl    187 CCL4  -0.0812 
 935 CL     -17.1453     2.1198   -17.2615 Cl    187 CCL4  -0.0812 
 936 CL     -18.2079    -0.2415   -13.1231 Cl    188 CCL4  -0.0812 
 937 C      -17.5095    -1.2491   -11.8409 C.3   188 CCL4   0.3246 
 938 CL     -15.7905    -0.8551   -11.6515 Cl    188 CCL4  -0.0812 
 939 CL     -17.6805    -2.9577   -12.2832 Cl    188 CCL4  -0.0812 
 940 CL     -18.3558    -0.9452   -10.3099 Cl    188 CCL4  -0.0812 
 941 CL     -17.1286    14.9983   -11.5133 Cl    189 CCL4  -0.0812 
 942 C      -15.4433    14.6708   -11.9479 C.3   189 CCL4   0.3246 
 943 CL     -14.4438    14.6243   -10.4835 Cl    189 CCL4  -0.0812 
 944 CL     -14.8570    15.9510   -13.0273 Cl    189 CCL4  -0.0812 
 945 CL     -15.3524    13.1035   -12.7690 Cl    189 CCL4  -0.0812 
 946 CL     -19.3578    15.3132   -16.9777 Cl    190 CCL4  -0.0812 
 947 C      -18.1939    15.2384   -15.6423 C.3   190 CCL4   0.3246 
 948 CL     -18.4107    13.7213   -14.7501 Cl    190 CCL4  -0.0812 
 949 CL     -18.4662    16.6059   -14.5467 Cl    190 CCL4  -0.0812 
 950 CL     -16.5447    15.3108   -16.2928 Cl    190 CCL4  -0.0812 
 951 CL     -15.1238    -4.1616   -16.6583 Cl    191 CCL4  -0.0812 
 952 C      -15.1227    -2.4276   -16.2929 C.3   191 CCL4   0.3246 
 953 CL     -14.1516    -2.1307   -14.8366 Cl    191 CCL4  -0.0812 
 954 CL     -16.7859    -1.8813   -16.0095 Cl    191 CCL4  -0.0812 
 955 CL     -14.4319    -1.5428   -17.6688 Cl    191 CCL4  -0.0812 
 956 CL     -15.6186     5.5738    -6.4840 Cl    192 CCL4  -0.0812 
 957 C      -16.9553     5.8075    -7.6293 C.3   192 CCL4   0.3246 
 958 CL     -18.4248     5.0651    -6.9670 Cl    192 CCL4  -0.0812 
 959 CL     -16.5535     5.0538    -9.1840 Cl    192 CCL4  -0.0812 
 960 CL     -17.2280     7.5411    -7.8848 Cl    192 CCL4  -0.0812 
 961 CL     -20.7504     7.4959    -8.6916 Cl    193 CCL4  -0.0812 
 962 C      -20.9409     8.2445   -10.2881 C.3   193 CCL4   0.3246 
 963 CL     -21.8371     7.1498   -11.3629 Cl    193 CCL4  -0.0812 
 964 CL     -19.3426     8.5883   -10.9834 Cl    193 CCL4  -0.0812 
 965 CL     -21.8394     9.7587   -10.1062 Cl    193 CCL4  -0.0812 
 966 CL     -17.0129     2.0013    -5.8848 Cl    194 CCL4  -0.0812 
 967 C      -15.9086     1.0502    -6.8971 C.3   194 CCL4   0.3246 
 968 CL     -15.8798     1.7136    -8.5393 Cl    194 CCL4  -0.0812 
 969 CL     -16.4586    -0.6341    -6.9649 Cl    194 CCL4  -0.0812 
 970 CL     -14.2796     1.1202    -6.2021 Cl    194 CCL4  -0.0812 
 971 CL     -14.6960    -3.8068    -2.8298 Cl    195 CCL4  -0.0812 
 972 C      -13.3303    -2.9457    -3.5626 C.3   195 CCL4   0.3246 
 973 CL     -13.8970    -2.0385    -4.9724 Cl    195 CCL4  -0.0812 
 974 CL     -12.1015    -4.1141    -4.0813 Cl    195 CCL4  -0.0812 
 975 CL     -12.6336    -1.8196    -2.3787 Cl    195 CCL4  -0.0812 
 976 CL     -32.0735     1.5250    -0.9407 Cl    196 CCL4  -0.0812 
 977 C      -32.2125     2.8674     0.2089 C.3   196 CCL4   0.3246 
 978 CL     -32.0508     4.4079    -0.6592 Cl    196 CCL4  -0.0812 
 979 CL     -33.8041     2.8061     0.9979 Cl    196 CCL4  -0.0812 
 980 CL     -30.9233     2.7271     1.4252 Cl    196 CCL4  -0.0812 
 981 CL     -18.2680    18.2652    -6.2590 Cl    197 CCL4  -0.0812 
 982 C      -16.9707    18.1591    -7.4591 C.3   197 CCL4   0.3246 
 983 CL     -15.4040    18.1607    -6.6258 Cl    197 CCL4  -0.0812 
 984 CL     -17.0755    19.5410    -8.5699 Cl    197 CCL4  -0.0812 
 985 CL     -17.1443    16.6578    -8.3808 Cl    197 CCL4  -0.0812 
 986 CL     -18.1393    16.3965    -0.6757 Cl    198 CCL4  -0.0812 
 987 C      -16.7243    15.5144    -0.0738 C.3   198 CCL4   0.3246 
 988 CL     -15.7819    14.8739    -1.4360 Cl    198 CCL4  -0.0812 
 989 CL     -17.2611    14.1702     0.9546 Cl    198 CCL4  -0.0812 
 990 CL     -15.7164    16.6295     0.8656 Cl    198 CCL4  -0.0812 
 991 CL     -14.8013     2.0561    -0.4055 Cl    199 CCL4  -0.0812 
 992 C      -15.8543     3.0818    -1.4037 C.3   199 CCL4   0.3246 
 993 CL     -17.5001     2.4238    -1.3965 Cl    199 CCL4  -0.0812 
 994 CL     -15.2362     3.1229    -3.0675 Cl    199 CCL4  -0.0812 
 995 CL     -15.8815     4.7261    -0.7367 Cl    199 CCL4  -0.0812 
 996 CL     -19.3095    -0.6864    -1.8872 Cl    200 CCL4  -0.0812 
 997 C      -18.3845    -1.2694    -3.2823 C.3   200 CCL4   0.3246 
 998 CL     -18.2601    -3.0385    -3.2205 Cl    200 CCL4  -0.0812 
 999 CL     -16.7548    -0.5623    -3.2530 Cl    200 CCL4  -0.0812 
1000 CL     -19.2244    -0.7883    -4.7676 Cl    200 CCL4  -0.0812 
1001 CL     -17.7179    -0.2062     1.2916 Cl    201 CCL4  -0.0812 
1002 C      -16.9522    -1.8082     1.2417 C.3   201 CCL4   0.3246 
1003 CL     -15.5712    -1.7682     0.1257 Cl    201 CCL4  -0.0812 
1004 CL     -18.1260    -3.0166     0.6839 Cl    201 CCL4  -0.0812 
1005 CL     -16.3874    -2.2404     2.8693 Cl    201 CCL4  -0.0812 
1006 CL     -13.9197    10.0631    -2.2559 Cl    202 CCL4  -0.0812 
1007 C      -15.2462    10.4850    -1.1552 C.3   202 CCL4   0.3246 
1008 CL     -16.5478    11.2672    -2.0716 Cl    202 CCL4  -0.0812 
1009 CL     -14.6577    11.6038     0.0893 Cl    202 CCL4  -0.0812 
1010 CL     -15.8622     9.0098    -0.3838 Cl    202 CCL4  -0.0812 
1011 CL     -18.9156    14.6295     5.0924 Cl    203 CCL4  -0.0812 
1012 C      -19.9296    15.6621     4.0654 C.3   203 CCL4   0.3246 
1013 CL     -18.8979    16.6900     3.0491 Cl    203 CCL4  -0.0812 
1014 CL     -20.9641    16.6792     5.0876 Cl    203 CCL4  -0.0812 
1015 CL     -20.9452    14.6411     3.0301 Cl    203 CCL4  -0.0812 
1016 CL     -19.8185    10.8654    23.6667 Cl    204 CCL4  -0.0812 
1017 C      -20.9999    11.5865    22.5566 C.3   204 CCL4   0.3246 
1018 CL     -21.9886    12.7787    23.4249 Cl    204 CCL4  -0.0812 
1019 CL     -22.0513    10.3128    21.9140 Cl    204 CCL4  -0.0812 
1020 CL     -20.1420    12.3781    21.2187 Cl    204 CCL4  -0.0812 
1021 CL     -17.6242    13.2293    -8.4538 Cl    205 CCL4  -0.0812 
1022 C      -17.4033    11.4987    -8.1520 C.3   205 CCL4   0.3246 
1023 CL     -16.5295    11.2808    -6.6251 Cl    205 CCL4  -0.0812 
1024 CL     -16.4727    10.7845    -9.4870 Cl    205 CCL4  -0.0812 
1025 CL     -18.9894    10.7130    -8.0335 Cl    205 CCL4  -0.0812 
1026 CL     -21.3067    14.4829   -12.9754 Cl    206 CCL4  -0.0812 
1027 C      -21.4526    12.9659   -12.0684 C.3   206 CCL4   0.3246 
1028 CL     -22.7682    13.1174   -10.8856 Cl    206 CCL4  -0.0812 
1029 CL     -19.9247    12.6295   -11.2276 Cl    206 CCL4  -0.0812 
1030 CL     -21.8130    11.6381   -13.1905 Cl    206 CCL4  -0.0812 
1031 CL     -19.8387    17.1052   -11.0526 Cl    207 CCL4  -0.0812 
1032 C      -21.0412    16.9574    -9.7618 C.3   207 CCL4   0.3246 
1033 CL     -20.9430    18.3807    -8.7057 Cl    207 CCL4  -0.0812 
1034 CL     -20.7038    15.4890    -8.8254 Cl    207 CCL4  -0.0812 
1035 CL     -22.6653    16.8511   -10.4723 Cl    207 CCL4  -0.0812 
1036 CL      15.5671     8.7870    11.3921 Cl    208 CCL4  -0.0812 
1037 C       15.1994    10.0631    12.5642 C.3   208 CCL4   0.3246 
1038 CL      13.6671    10.8422    12.1252 Cl    208 CCL4  -0.0812 
1039 CL      16.5113    11.2588    12.5468 Cl    208 CCL4  -0.0812 
1040 CL      15.0527     9.3581    14.1868 Cl    208 CCL4  -0.0812 
1041 CL     -21.8512     5.2660     8.9566 Cl    209 CCL4  -0.0812 
1042 C      -22.1408     5.6459    10.6598 C.3   209 CCL4   0.3246 
1043 CL     -21.8903     4.1935    11.6475 Cl    209 CCL4  -0.0812 
1044 CL     -23.8107     6.2064    10.8551 Cl    209 CCL4  -0.0812 
1045 CL     -21.0127     6.9169    11.1648 Cl    209 CCL4  -0.0812 
1046 CL     -24.0273    -1.8599    13.7265 Cl    210 CCL4  -0.0812 
1047 C      -24.6102    -0.5508    12.6866 C.3   210 CCL4   0.3246 
1048 CL     -25.1777    -1.2185    11.1417 Cl    210 CCL4  -0.0812 
1049 CL     -23.2893     0.5976    12.3941 Cl    210 CCL4  -0.0812 
1050 CL     -25.9497     0.2768    13.4981 Cl    210 CCL4  -0.0812 
1051 CL     -30.3480     7.7942    14.1235 Cl    211 CCL4  -0.0812 
1052 C      -28.8815     6.9687    14.6880 C.3   211 CCL4   0.3246 
1053 CL     -29.2657     5.9429    16.0865 Cl    211 CCL4  -0.0812 
1054 CL     -27.6740     8.1781    15.1640 Cl    211 CCL4  -0.0812 
1055 CL     -28.2363     5.9637    13.3758 Cl    211 CCL4  -0.0812 
1056 CL     -28.6827    15.1578    12.4227 Cl    212 CCL4  -0.0812 
1057 C      -28.8209    16.7592    13.1781 C.3   212 CCL4   0.3246 
1058 CL     -30.0776    16.7123    14.4298 Cl    212 CCL4  -0.0812 
1059 CL     -29.2468    17.9634    11.9466 Cl    212 CCL4  -0.0812 
1060 CL     -27.2732    17.2091    13.9170 Cl    212 CCL4  -0.0812 
1061 CL     -24.8392     5.8048    14.6149 Cl    213 CCL4  -0.0812 
1062 C      -24.9295     4.0428    14.4670 C.3   213 CCL4   0.3246 
1063 CL     -23.3568     3.3336    14.8819 Cl    213 CCL4  -0.0812 
1064 CL     -25.3472     3.6266    12.7947 Cl    213 CCL4  -0.0812 
1065 CL     -26.1724     3.4196    15.5721 Cl    213 CCL4  -0.0812 
1066 CL     -28.9162    -2.3401     9.5301 Cl    214 CCL4  -0.0812 
1067 C      -30.6050    -1.8195     9.6926 C.3   214 CCL4   0.3246 
1068 CL     -31.6884    -3.2205     9.5597 Cl    214 CCL4  -0.0812 
1069 CL     -30.9802    -0.6714     8.3969 Cl    214 CCL4  -0.0812 
1070 CL     -30.8364    -1.0403    11.2732 Cl    214 CCL4  -0.0812 
1071 CL     -26.2215    -1.4072    16.7154 Cl    215 CCL4  -0.0812 
1072 C      -26.6860    -3.0867    17.0357 C.3   215 CCL4   0.3246 
1073 CL     -25.9287    -4.1351    15.8245 Cl    215 CCL4  -0.0812 
1074 CL     -28.4524    -3.2376    16.9581 Cl    215 CCL4  -0.0812 
1075 CL     -26.1354    -3.5635    18.6503 Cl    215 CCL4  -0.0812 
1076 CL     -29.1413    -0.3477    14.8336 Cl    216 CCL4  -0.0812 
1077 C      -30.3078     0.6205    15.7485 C.3   216 CCL4   0.3246 
1078 CL     -29.6572     2.2545    15.9912 Cl    216 CCL4  -0.0812 
1079 CL     -30.5991    -0.1444    17.3246 Cl    216 CCL4  -0.0812 
1080 CL     -31.8287     0.7113    14.8381 Cl    216 CCL4  -0.0812 
1081 CL     -12.5947    12.7571     9.7069 Cl    217 CCL4  -0.0812 
1082 C      -13.1177    14.4509     9.6565 C.3   217 CCL4   0.3246 
1083 CL     -11.7798    15.5168    10.1296 Cl    217 CCL4  -0.0812 
1084 CL     -14.4704    14.6744    10.7812 Cl    217 CCL4  -0.0812 
1085 CL     -13.6312    14.8477     8.0058 Cl    217 CCL4  -0.0812 
1086 CL     -20.7324    18.9468     8.3721 Cl    218 CCL4  -0.0812 
1087 C      -22.4086    18.6433     8.8562 C.3   218 CCL4   0.3246 
1088 CL     -22.9503    17.1073     8.1591 Cl    218 CCL4  -0.0812 
1089 CL     -23.4434    19.9615     8.2738 Cl    218 CCL4  -0.0812 
1090 CL     -22.4995    18.5524    10.6231 Cl    218 CCL4  -0.0812 
1091 CL     -28.5920    16.3503     8.9970 Cl    219 CCL4  -0.0812 
1092 C      -27.4836    17.2416     7.9366 C.3   219 CCL4   0.3246 
1093 CL     -26.7766    18.6098     8.8222 Cl    219 CCL4  -0.0812 
1094 CL     -28.3724    17.8577     6.5364 Cl    219 CCL4  -0.0812 
1095 CL     -26.2036    16.1492     7.3748 Cl    219 CCL4  -0.0812 
1096 CL      -9.6807    -1.4748     8.9187 Cl    220 CCL4  -0.0812 
1097 C      -10.6648    -2.6095     7.9781 C.3   220 CCL4   0.3246 
1098 CL     -11.7032    -3.5458     9.0699 Cl    220 CCL4  -0.0812 
1099 CL      -9.5934    -3.6906     7.0762 Cl    220 CCL4  -0.0812 
1100 CL     -11.6694    -1.7044     6.8296 Cl    220 CCL4  -0.0812 
1101 CL     -17.7363     5.5814     2.2668 Cl    221 CCL4  -0.0812 
1102 C      -17.6036     4.2403     3.4206 C.3   221 CCL4   0.3246 
1103 CL     -16.5443     2.9794     2.7520 Cl    221 CCL4  -0.0812 
1104 CL     -19.2132     3.5573     3.7185 Cl    221 CCL4  -0.0812 
1105 CL     -16.9198     4.8371     4.9466 Cl    221 CCL4  -0.0812 
1106 CL     -23.1264     2.8517     6.8212 Cl    222 CCL4  -0.0812 
1107 C      -23.6560     1.9339     8.2436 C.3   222 CCL4   0.3246 
1108 CL     -24.6104     2.9814     9.3122 Cl    222 CCL4  -0.0812 
1109 CL     -22.2318     1.3310     9.1156 Cl    222 CCL4  -0.0812 
1110 CL     -24.6594     0.5700     7.7192 Cl    222 CCL4  -0.0812 
1111 CL     -28.6188     2.2464     4.3651 Cl    223 CCL4  -0.0812 
1112 C      -28.4580     2.0862     6.1257 C.3   223 CCL4   0.3246 
1113 CL     -29.9966     2.5254     6.8883 Cl    223 CCL4  -0.0812 
1114 CL     -27.1773     3.1672     6.7135 Cl    223 CCL4  -0.0812 
1115 CL     -28.0491     0.4079     6.5372 Cl    223 CCL4  -0.0812 
1116 CL     -25.9563     8.6862     6.0459 Cl    224 CCL4  -0.0812 
1117 C      -25.2793     7.6420     7.3119 C.3   224 CCL4   0.3246 
1118 CL     -26.5561     7.1841     8.4573 Cl    224 CCL4  -0.0812 
1119 CL     -24.0003     8.5226     8.1721 Cl    224 CCL4  -0.0812 
1120 CL     -24.6029     6.1760     6.5734 Cl    224 CCL4  -0.0812 
1121 CL     -32.5533     5.1096     7.2477 Cl    225 CCL4  -0.0812 
1122 C      -31.5310     6.2291     8.1737 C.3   225 CCL4   0.3246 
1123 CL     -31.6204     5.8347     9.9026 Cl    225 CCL4  -0.0812 
1124 CL     -32.1004     7.8914     7.9087 Cl    225 CCL4  -0.0812 
1125 CL     -29.8458     6.0792     7.6359 Cl    225 CCL4  -0.0812 
1126 CL     -27.8721     1.1989    10.0749 Cl    226 CCL4  -0.0812 
1127 C      -28.7795     2.5404    10.8029 C.3   226 CCL4   0.3246 
1128 CL     -28.1138     4.0859    10.2343 Cl    226 CCL4  -0.0812 
1129 CL     -28.6517     2.4467    12.5680 Cl    226 CCL4  -0.0812 
1130 CL     -30.4879     2.4267    10.3418 Cl    226 CCL4  -0.0812 
1131 CL      -9.5478     6.5306    16.1841 Cl    227 CCL4  -0.0812 
1132 C       -9.6111     4.9372    15.4014 C.3   227 CCL4   0.3246 
1133 CL     -10.9587     3.9988    16.0789 Cl    227 CCL4  -0.0812 
1134 CL      -8.0884     4.0770    15.6892 Cl    227 CCL4  -0.0812 
1135 CL      -9.8398     5.1388    13.6525 Cl    227 CCL4  -0.0812 
1136 CL      -8.9346    -0.1108    12.1167 Cl    228 CCL4  -0.0812 
1137 C      -10.4292     0.8149    11.8889 C.3   228 CCL4   0.3246 
1138 CL     -10.2142     1.9497    10.5363 Cl    228 CCL4  -0.0812 
1139 CL     -10.7872     1.7082    13.3786 Cl    228 CCL4  -0.0812 
1140 CL     -11.7748    -0.2873    11.5229 Cl    228 CCL4  -0.0812 
1141 CL     -34.6749    19.0732    12.5244 Cl    229 CCL4  -0.0812 
1142 C      -35.2981    17.8865    13.6889 C.3   229 CCL4   0.3246 
1143 CL     -36.7433    18.5348    14.4883 Cl    229 CCL4  -0.0812 
1144 CL     -34.0513    17.5455    14.9002 Cl    229 CCL4  -0.0812 
1145 CL     -35.7226    16.3846    12.8495 Cl    229 CCL4  -0.0812 
1146 CL     -30.4018    20.0963     4.7078 Cl    230 CCL4  -0.0812 
1147 C      -31.2185    18.9829     3.5958 C.3   230 CCL4   0.3246 
1148 CL     -32.8957    19.5179     3.3584 Cl    230 CCL4  -0.0812 
1149 CL     -31.2177    17.3459     4.2841 Cl    230 CCL4  -0.0812 
1150 CL     -30.3591    18.9744     2.0414 Cl    230 CCL4  -0.0812 
1151 CL     -27.1344     1.4566    21.4840 Cl    231 CCL4  -0.0812 
1152 C      -26.9876     0.3860    20.0775 C.3   231 CCL4   0.3246 
1153 CL     -28.1907    -0.9148    20.1902 Cl    231 CCL4  -0.0812 
1154 CL     -25.3605    -0.3225    20.0417 Cl    231 CCL4  -0.0812 
1155 CL     -27.2668     1.3257    18.5973 Cl    231 CCL4  -0.0812 
1156 CL     -24.3794     3.4708    19.1502 Cl    232 CCL4  -0.0812 
1157 C      -22.7795     4.2242    19.3139 C.3   232 CCL4   0.3246 
1158 CL     -22.5110     5.3443    17.9626 Cl    232 CCL4  -0.0812 
1159 CL     -21.5253     2.9728    19.2883 Cl    232 CCL4  -0.0812 
1160 CL     -22.6981     5.1033    20.8544 Cl    232 CCL4  -0.0812 
1161 CL     -24.3407     8.4883    16.6765 Cl    233 CCL4  -0.0812 
1162 C      -25.1693     8.1779    18.2121 C.3   233 CCL4   0.3246 
1163 CL     -23.9685     8.1095    19.5132 Cl    233 CCL4  -0.0812 
1164 CL     -26.0432     6.6329    18.1215 Cl    233 CCL4  -0.0812 
1165 CL     -26.3131     9.4918    18.5400 Cl    233 CCL4  -0.0812 
1166 CL     -20.5046    -0.2300    16.6935 Cl    234 CCL4  -0.0812 
1167 C      -22.0176    -0.5797    17.5520 C.3   234 CCL4   0.3246 
1168 CL     -23.2398     0.6306    17.1153 Cl    234 CCL4  -0.0812 
1169 CL     -21.7247    -0.5331    19.3039 Cl    234 CCL4  -0.0812 
1170 CL     -22.6015    -2.1882    17.0866 Cl    234 CCL4  -0.0812 
1171 CL     -29.4768     4.1127    19.5684 Cl    235 CCL4  -0.0812 
1172 C      -31.0254     3.3154    19.9236 C.3   235 CCL4   0.3246 
1173 CL     -31.9999     3.2146    18.4417 Cl    235 CCL4  -0.0812 
1174 CL     -31.9137     4.2505    21.1417 Cl    235 CCL4  -0.0812 
1175 CL     -30.7214     1.6819    20.5510 Cl    235 CCL4  -0.0812 
1176 CL     -14.2967    -0.2428    14.4794 Cl    236 CCL4  -0.0812 
1177 C      -13.4541    -1.7683    14.8288 C.3   236 CCL4   0.3246 
1178 CL     -14.0995    -2.4779    16.3241 Cl    236 CCL4  -0.0812 
1179 CL     -11.7186    -1.4487    15.0337 Cl    236 CCL4  -0.0812 
1180 CL     -13.6999    -2.9040    13.4840 Cl    236 CCL4  -0.0812 
1181 CL     -10.3327    15.9504    19.2580 Cl    237 CCL4  -0.0812 
1182 C       -9.8591    16.7863    17.7691 C.3   237 CCL4   0.3246 
1183 CL     -10.6220    18.3890    17.7294 Cl    237 CCL4  -0.0812 
1184 CL     -10.3916    15.8409    16.3644 Cl    237 CCL4  -0.0812 
1185 CL      -8.0922    16.9602    17.7323 Cl    237 CCL4  -0.0812 
1186 CL     -24.4470    10.7570    11.1124 Cl    238 CCL4  -0.0812 
1187 C      -24.9599     9.7427    12.4749 C.3   238 CCL4   0.3246 
1188 CL     -26.1954     8.5956    11.9197 Cl    238 CCL4  -0.0812 
1189 CL     -25.6308    10.7618    13.7653 Cl    238 CCL4  -0.0812 
1190 CL     -23.5620     8.8514    13.1014 Cl    238 CCL4  -0.0812 
1191 CL     -27.3508    12.8231    18.0818 Cl    239 CCL4  -0.0812 
1192 C      -27.7274    14.0786    16.8870 C.3   239 CCL4   0.3246 
1193 CL     -28.7868    13.3969    15.6335 Cl    239 CCL4  -0.0812 
1194 CL     -26.2174    14.6505    16.1496 Cl    239 CCL4  -0.0812 
1195 CL     -28.5495    15.4375    17.6852 Cl    239 CCL4  -0.0812 
1196 CL     -32.7517    14.2843    14.1485 Cl    240 CCL4  -0.0812 
1197 C      -33.1661    13.9676    15.8433 C.3   240 CCL4   0.3246 
1198 CL     -32.6814    12.3126    16.2639 Cl    240 CCL4  -0.0812 
1199 CL     -34.9194    14.1490    16.0673 Cl    240 CCL4  -0.0812 
1200 CL     -32.3105    15.1235    16.8865 Cl    240 CCL4  -0.0812 
1201 CL     -23.2798    14.3306    10.5229 Cl    241 CCL4  -0.0812 
1202 C      -24.9366    14.6481    11.0788 C.3   241 CCL4   0.3246 
1203 CL     -25.1216    14.0934    12.7522 Cl    241 CCL4  -0.0812 
1204 CL     -26.0878    13.7899    10.0374 Cl    241 CCL4  -0.0812 
1205 CL     -25.2657    16.3874    11.0058 Cl    241 CCL4  -0.0812 
1206 CL     -11.3393    12.7457     5.7541 Cl    242 CCL4  -0.0812 
1207 C      -10.6183    14.1344     4.9115 C.3   242 CCL4   0.3246 
1208 CL      -9.2334    13.6037     3.9383 Cl    242 CCL4  -0.0812 
1209 CL     -10.0822    15.3327     6.1057 Cl    242 CCL4  -0.0812 
1210 CL     -11.8224    14.8621     3.8372 Cl    242 CCL4  -0.0812 
1211 CL     -23.1777    11.9098     4.4877 Cl    243 CCL4  -0.0812 
1212 C      -23.8596    13.1552     5.5517 C.3   243 CCL4   0.3246 
1213 CL     -25.0292    12.4131     6.6639 Cl    243 CCL4  -0.0812 
1214 CL     -24.6612    14.3937     4.5634 Cl    243 CCL4  -0.0812 
1215 CL     -22.5583    13.9063     6.4920 Cl    243 CCL4  -0.0812 
1216 CL     -30.4783     7.6216     4.6449 Cl    244 CCL4  -0.0812 
1217 C      -29.8640     9.2717     4.4763 C.3   244 CCL4   0.3246 
1218 CL     -29.5388     9.9402     6.0887 Cl    244 CCL4  -0.0812 
1219 CL     -31.0728    10.2698     3.6457 Cl    244 CCL4  -0.0812 
1220 CL     -28.3715     9.2383     3.5208 Cl    244 CCL4  -0.0812 
1221 CL     -29.4244    14.2926     6.3154 Cl    245 CCL4  -0.0812 
1222 C      -28.9640    14.0343     4.6229 C.3   245 CCL4   0.3246 
1223 CL     -28.1296    15.4697     3.9964 Cl    245 CCL4  -0.0812 
1224 CL     -30.4213    13.7290     3.6587 Cl    245 CCL4  -0.0812 
1225 CL     -27.8798    12.6370     4.5232 Cl    245 CCL4  -0.0812 
1226 CL     -32.2160    14.8024     8.7538 Cl    246 CCL4  -0.0812 
1227 C      -33.3217    15.4152     9.9992 C.3   246 CCL4   0.3246 
1228 CL     -34.1677    14.0486    10.7513 Cl    246 CCL4  -0.0812 
1229 CL     -34.5095    16.5119     9.2608 Cl    246 CCL4  -0.0812 
1230 CL     -32.3900    16.2935    11.2298 Cl    246 CCL4  -0.0812 
1231 CL     -29.5428     9.1310    10.2575 Cl    247 CCL4  -0.0812 
1232 C      -28.8780    10.7623    10.0271 C.3   247 CCL4   0.3246 
1233 CL     -30.0926    11.7998     9.2519 Cl    247 CCL4  -0.0812 
1234 CL     -27.4367    10.6689     8.9938 Cl    247 CCL4  -0.0812 
1235 CL     -28.4409    11.4508    11.6054 Cl    247 CCL4  -0.0812 
1236 CL      14.9759    11.1359     8.6640 Cl    248 CCL4  -0.0812 
1237 C       14.5055    11.7242     7.0576 C.3   248 CCL4   0.3246 
1238 CL      13.7469    10.4069     6.1396 Cl    248 CCL4  -0.0812 
1239 CL      15.9494    12.2870     6.1933 Cl    248 CCL4  -0.0812 
1240 CL      13.3553    13.0679     7.2315 Cl    248 CCL4  -0.0812 
1241 CL     -10.3006     9.8561    17.7301 Cl    249 CCL4  -0.0812 
1242 C      -11.1859    10.0871    19.2507 C.3   249 CCL4   0.3246 
1243 CL     -10.1221     9.6849    20.6162 Cl    249 CCL4  -0.0812 
1244 CL     -12.6077     9.0269    19.2690 Cl    249 CCL4  -0.0812 
1245 CL     -11.7172    11.7761    19.3820 Cl    249 CCL4  -0.0812 
1246 CL     -11.8216    12.5627    15.6824 Cl    250 CCL4  -0.0812 
1247 C      -12.3714    13.1850    14.1118 C.3   250 CCL4   0.3246 
1248 CL     -13.5049    12.0300    13.3825 Cl    250 CCL4  -0.0812 
1249 CL     -10.9756    13.4022    13.0368 Cl    250 CCL4  -0.0812 
1250 CL     -13.1854    14.7454    14.3398 Cl    250 CCL4  -0.0812 
1251 CL     -19.3511     7.9419     4.6199 Cl    251 CCL4  -0.0812 
1252 C      -20.9795     7.2409     4.4948 C.3   251 CCL4   0.3246 
1253 CL     -21.1078     5.8602     5.5990 Cl    251 CCL4  -0.0812 
1254 CL     -21.2706     6.6935     2.8325 Cl    251 CCL4  -0.0812 
1255 CL     -22.1929     8.4615     4.9295 Cl    251 CCL4  -0.0812 
1256 CL     -23.8853    12.2119    19.4947 Cl    252 CCL4  -0.0812 
1257 C      -22.7299    12.0480    18.1590 C.3   252 CCL4   0.3246 
1258 CL     -23.6226    11.9115    16.6320 Cl    252 CCL4  -0.0812 
1259 CL     -21.7348    10.6010    18.4065 Cl    252 CCL4  -0.0812 
1260 CL     -21.6745    13.4704    18.1054 Cl    252 CCL4  -0.0812 
1261 CL     -24.1710    17.9800    20.8292 Cl    253 CCL4  -0.0812 
1262 C      -23.8859    16.4540    19.9685 C.3   253 CCL4   0.3246 
1263 CL     -22.8614    15.3956    20.9561 Cl    253 CCL4  -0.0812 
1264 CL     -23.0805    16.7947    18.4274 Cl    253 CCL4  -0.0812 
1265 CL     -25.4308    15.6429    19.6529 Cl    253 CCL4  -0.0812 
1266 CL     -16.4867    14.9221    19.3276 Cl    254 CCL4  -0.0812 
1267 C      -14.8264    14.8542    19.9395 C.3   254 CCL4   0.3246 
1268 CL     -14.4924    16.3088    20.9025 Cl    254 CCL4  -0.0812 
1269 CL     -13.6920    14.7724    18.5741 Cl    254 CCL4  -0.0812 
1270 CL     -14.6513    13.4080    20.9525 Cl    254 CCL4  -0.0812 
1271 CL      17.0015    12.8864    22.0433 Cl    255 CCL4  -0.0812 
1272 C       16.7447    13.6921    20.4810 C.3   255 CCL4   0.3246 
1273 CL      17.1863    15.4086    20.6153 Cl    255 CCL4  -0.0812 
1274 CL      15.0356    13.5587    20.0155 Cl    255 CCL4  -0.0812 
1275 CL      17.7562    12.9128    19.2472 Cl    255 CCL4  -0.0812 
1276 CL     -31.3105     9.5809    20.3214 Cl    256 CCL4  -0.0812 
1277 C      -30.4844     8.4366    19.2489 C.3   256 CCL4   0.3246 
1278 CL     -31.5904     7.1138    18.8279 Cl    256 CCL4  -0.0812 
1279 CL     -29.0667     7.7690    20.0816 Cl    256 CCL4  -0.0812 
1280 CL     -29.9749     9.2825    17.7719 Cl    256 CCL4  -0.0812 
1281 CL     -17.2230     8.3707    10.6273 Cl    257 CCL4  -0.0812 
1282 C      -15.9694     9.5881    10.9508 C.3   257 CCL4   0.3246 
1283 CL     -15.3555    10.2372     9.4138 Cl    257 CCL4  -0.0812 
1284 CL     -14.6358     8.8306    11.8423 Cl    257 CCL4  -0.0812 
1285 CL     -16.6559    10.9083    11.9216 Cl    257 CCL4  -0.0812 
1286 CL     -18.3227     4.3119    13.9610 Cl    258 CCL4  -0.0812 
1287 C      -18.9346     2.8865    14.8203 C.3   258 CCL4   0.3246 
1288 CL     -19.8691     3.4024    16.2355 Cl    258 CCL4  -0.0812 
1289 CL     -17.5687     1.8875    15.3520 Cl    258 CCL4  -0.0812 
1290 CL     -19.9777     1.9468    13.7361 Cl    258 CCL4  -0.0812 
1291 CL     -13.2294     5.0055     8.4452 Cl    259 CCL4  -0.0812 
1292 C      -12.0789     6.2693     8.9266 C.3   259 CCL4   0.3246 
1293 CL     -10.4866     5.9129     8.2205 Cl    259 CCL4  -0.0812 
1294 CL     -11.9505     6.3066    10.6947 Cl    259 CCL4  -0.0812 
1295 CL     -12.6518     7.8454     8.3409 Cl    259 CCL4  -0.0812 
1296 CL     -16.0570     2.1606    12.0097 Cl    260 CCL4  -0.0812 
1297 C      -14.9050     3.4751    12.3284 C.3   260 CCL4   0.3246 
1298 CL     -14.5834     3.5834    14.0726 Cl    260 CCL4  -0.0812 
1299 CL     -15.5669     5.0175    11.7422 Cl    260 CCL4  -0.0812 
1300 CL     -13.3924     3.1314    11.4754 Cl    260 CCL4  -0.0812 
1301 CL     -13.6447     9.1073    15.7549 Cl    261 CCL4  -0.0812 
1302 C      -13.8518     7.3658    15.4687 C.3   261 CCL4   0.3246 
1303 CL     -15.5376     7.0282    15.0297 Cl    261 CCL4  -0.0812 
1304 CL     -13.4303     6.4635    16.9385 Cl    261 CCL4  -0.0812 
1305 CL     -12.7915     6.8566    14.1435 Cl    261 CCL4  -0.0812 
1306 CL     -20.0334    -1.6607     3.8543 Cl    262 CCL4  -0.0812 
1307 C      -19.3014    -1.0424     5.3497 C.3   262 CCL4   0.3246 
1308 CL     -18.3775    -2.3409     6.1247 Cl    262 CCL4  -0.0812 
1309 CL     -20.5778    -0.4797     6.4491 Cl    262 CCL4  -0.0812 
1310 CL     -18.2063     0.3046     4.9710 Cl    262 CCL4  -0.0812 
1311 CL     -18.3893     5.7435     8.2437 Cl    263 CCL4  -0.0812 
1312 C      -18.2106     4.0035     8.5517 C.3   263 CCL4   0.3246 
1313 CL     -19.2026     3.0835     7.3996 Cl    263 CCL4  -0.0812 
1314 CL     -18.7357     3.6340    10.2062 Cl    263 CCL4  -0.0812 
1315 CL     -16.5045     3.5521     8.3598 Cl    263 CCL4  -0.0812 
1316 CL     -19.5614    -0.4136    11.0342 Cl    264 CCL4  -0.0812 
1317 C      -19.1115    -1.5499    12.3216 C.3   264 CCL4   0.3246 
1318 CL     -17.7225    -0.9210    13.2283 Cl    264 CCL4  -0.0812 
1319 CL     -18.6720    -3.1124    11.6104 Cl    264 CCL4  -0.0812 
1320 CL     -20.4909    -1.7598    13.4156 Cl    264 CCL4  -0.0812 
1321 CL     -18.7495    14.9960    15.8491 Cl    265 CCL4  -0.0812 
1322 C      -17.3605    15.6139    14.9318 C.3   265 CCL4   0.3246 
1323 CL     -16.0445    16.0074    16.0507 Cl    265 CCL4  -0.0812 
1324 CL     -17.8334    17.0796    14.0506 Cl    265 CCL4  -0.0812 
1325 CL     -16.8079    14.3787    13.7817 Cl    265 CCL4  -0.0812 
1326 CL     -19.8568    15.1253     8.6303 Cl    266 CCL4  -0.0812 
1327 C      -18.1310    15.4520     8.8934 C.3   266 CCL4   0.3246 
1328 CL     -17.8250    15.6480    10.6270 Cl    266 CCL4  -0.0812 
1329 CL     -17.6677    16.9367     8.0419 Cl    266 CCL4  -0.0812 
1330 CL     -17.1648    14.0974     8.2784 Cl    266 CCL4  -0.0812 
1331 CL     -15.1177    -1.6322     7.4436 Cl    267 CCL4  -0.0812 
1332 C      -15.4514    -0.5952     8.8436 C.3   267 CCL4   0.3246 
1333 CL     -15.3374    -1.5459    10.3396 Cl    267 CCL4  -0.0812 
1334 CL     -17.0826     0.0842     8.6862 Cl    267 CCL4  -0.0812 
1335 CL     -14.2586     0.7195     8.8881 Cl    267 CCL4  -0.0812 
1336 CL     -15.6764     4.5069    20.2588 Cl    268 CCL4  -0.0812 
1337 C      -16.7718     5.3502    19.1456 C.3   268 CCL4   0.3246 
1338 CL     -18.4459     5.1893    19.7197 Cl    268 CCL4  -0.0812 
1339 CL     -16.6253     4.6335    17.5275 Cl    268 CCL4  -0.0812 
1340 CL     -16.3344     7.0703    19.0773 Cl    268 CCL4  -0.0812 
1341 CL     -19.3641     6.9922    16.7084 Cl    269 CCL4  -0.0812 
1342 C      -20.1083     7.5365    15.1926 C.3   269 CCL4   0.3246 
1343 CL     -21.2592     6.3127    14.6237 Cl    269 CCL4  -0.0812 
1344 CL     -18.8482     7.7928    13.9684 Cl    269 CCL4  -0.0812 
1345 CL     -20.9694     9.0569    15.4757 Cl    269 CCL4  -0.0812 
1346 CL     -18.1771     1.5811    19.0943 Cl    270 CCL4  -0.0812 
1347 C      -17.0549     0.2140    19.2406 C.3   270 CCL4   0.3246 
1348 CL     -15.4225     0.8201    19.5935 Cl    270 CCL4  -0.0812 
1349 CL     -17.0274    -0.6978    17.7183 Cl    270 CCL4  -0.0812 
1350 CL     -17.5956    -0.8494    20.5553 Cl    270 CCL4  -0.0812 
1351 CL     -20.4663    18.8812    19.8835 Cl    271 CCL4  -0.0812 
1352 C      -19.1220    17.7746    19.5373 C.3   271 CCL4   0.3246 
1353 CL     -17.8858    17.9206    20.8055 Cl    271 CCL4  -0.0812 
1354 CL     -18.4121    18.1817    17.9635 Cl    271 CCL4  -0.0812 
1355 CL     -19.7282    16.1094    19.4899 Cl    271 CCL4  -0.0812 
1356 CL     -20.3649     8.8441     8.0863 Cl    272 CCL4  -0.0812 
1357 C      -20.2520    10.6149     8.0278 C.3   272 CCL4   0.3246 
1358 CL     -18.8156    11.1384     8.9211 Cl    272 CCL4  -0.0812 
1359 CL     -21.7002    11.3287     8.7656 Cl    272 CCL4  -0.0812 
1360 CL     -20.1133    11.1531     6.3425 Cl    272 CCL4  -0.0812 
1361 CL     -15.6851    12.3422    16.5829 Cl    273 CCL4  -0.0812 
1362 C      -16.7405    11.2447    17.4969 C.3   273 CCL4   0.3246 
1363 CL     -15.8933    10.6917    18.9557 Cl    273 CCL4  -0.0812 
1364 CL     -17.1562     9.8487    16.4861 Cl    273 CCL4  -0.0812 
1365 CL     -18.2293    12.0915    17.9631 Cl    273 CCL4  -0.0812 
1366 CL     -19.9244    13.1314    11.7349 Cl    274 CCL4  -0.0812 
1367 C      -20.4155    11.8542    12.8590 C.3   274 CCL4   0.3246 
1368 CL     -22.0679    12.1647    13.4162 Cl    274 CCL4  -0.0812 
1369 CL     -19.3140    11.8356    14.2508 Cl    274 CCL4  -0.0812 
1370 CL     -20.3612    10.2904    12.0259 Cl    274 CCL4  -0.0812 
1371 CL     -21.2157    16.2324    13.0007 Cl    275 CCL4  -0.0812 
1372 C      -22.1697    16.5970    14.4532 C.3   275 CCL4   0.3246 
1373 CL     -21.1975    17.5598    15.5829 Cl    275 CCL4  -0.0812 
1374 CL     -22.6507    15.0836    15.2329 Cl    275 CCL4  -0.0812 
1375 CL     -23.6249    17.5032    14.0032 Cl    275 CCL4  -0.0812 
1376 CL     -23.3789    20.3397   -10.7602 Cl    276 CCL4  -0.0812 
1377 C      -23.7384    21.4526   -12.0941 C.3   276 CCL4   0.3246 
1378 CL     -25.1145    20.8265   -13.0224 Cl    276 CCL4  -0.0812 
1379 CL     -22.3206    21.5844   -13.1523 Cl    276 CCL4  -0.0812 
1380 CL     -24.1378    23.0552   -11.4429 Cl    276 CCL4  -0.0812 
1381 CL     -26.8443    18.8348     3.5163 Cl    277 CCL4  -0.0812 
1382 C      -25.4534    19.5299     4.3682 C.3   277 CCL4   0.3246 
1383 CL     -24.4347    18.2211     5.0007 Cl    277 CCL4  -0.0812 
1384 CL     -26.0279    20.5463     5.7058 Cl    277 CCL4  -0.0812 
1385 CL     -24.5066    20.5185     3.2425 Cl    277 CCL4  -0.0812 
1386 CL     -22.4952    23.3925     4.1297 Cl    278 CCL4  -0.0812 
1387 C      -23.7510    24.3192     3.2872 C.3   278 CCL4   0.3246 
1388 CL     -23.7679    23.8815     1.5693 Cl    278 CCL4  -0.0812 
1389 CL     -23.4190    26.0560     3.4485 Cl    278 CCL4  -0.0812 
1390 CL     -25.3286    23.9434     4.0005 Cl    278 CCL4  -0.0812 
1391 CL     -30.9971    19.5633   -15.2604 Cl    279 CCL4  -0.0812 
1392 C      -32.0709    19.9659   -13.9049 C.3   279 CCL4   0.3246 
1393 CL     -32.1481    18.5977   -12.7746 Cl    279 CCL4  -0.0812 
1394 CL     -33.6984    20.3074   -14.5289 Cl    279 CCL4  -0.0812 
1395 CL     -31.4447    21.3968   -13.0575 Cl    279 CCL4  -0.0812 
1396 CL     -24.1044    21.7224    -7.4462 Cl    280 CCL4  -0.0812 
1397 C      -25.0692    20.3618    -6.8378 C.3   280 CCL4   0.3246 
1398 CL     -24.4080    18.8409    -7.4707 Cl    280 CCL4  -0.0812 
1399 CL     -26.7562    20.5431    -7.3614 Cl    280 CCL4  -0.0812 
1400 CL     -25.0077    20.3416    -5.0655 Cl    280 CCL4  -0.0812 
1401 CL     -27.6519    22.2989   -10.8855 Cl    281 CCL4  -0.0812 
1402 C      -28.0640    23.5535    -9.7005 C.3   281 CCL4   0.3246 
1403 CL     -26.5971    24.0494    -8.8311 Cl    281 CCL4  -0.0812 
1404 CL     -29.2518    22.9121    -8.5456 Cl    281 CCL4  -0.0812 
1405 CL     -28.7546    24.9553   -10.5448 Cl    281 CCL4  -0.0812 
1406 CL      -9.9359    20.1295    23.1970 Cl    282 CCL4  -0.0812 
1407 C       -9.8691    18.7347    22.1028 C.3   282 CCL4   0.3246 
1408 CL     -11.4004    18.6217    21.2106 Cl    282 CCL4  -0.0812 
1409 CL      -9.6120    17.2567    23.0527 Cl    282 CCL4  -0.0812 
1410 CL      -8.5271    18.9354    20.9573 Cl    282 CCL4  -0.0812 
1411 CL     -24.1219    23.7156    21.2446 Cl    283 CCL4  -0.0812 
1412 C      -24.0782    22.3415    22.3689 C.3   283 CCL4   0.3246 
1413 CL     -24.2036    22.9314    24.0378 Cl    283 CCL4  -0.0812 
1414 CL     -22.5487    21.4641    22.1702 Cl    283 CCL4  -0.0812 
1415 CL     -25.4390    21.2563    22.0250 Cl    283 CCL4  -0.0812 
1416 CL     -28.0584    22.0436   -14.5983 Cl    284 CCL4  -0.0812 
1417 C      -27.9941    23.8058   -14.7877 C.3   284 CCL4   0.3246 
1418 CL     -27.6274    24.2052   -16.4798 Cl    284 CCL4  -0.0812 
1419 CL     -26.7288    24.4720   -13.7334 Cl    284 CCL4  -0.0812 
1420 CL     -29.5657    24.5021   -14.3401 Cl    284 CCL4  -0.0812 
1421 CL      -8.9184    21.9008   -11.2029 Cl    285 CCL4  -0.0812 
1422 C      -10.0712    22.8923   -12.1224 C.3   285 CCL4   0.3246 
1423 CL      -9.3010    24.4153   -12.6121 Cl    285 CCL4  -0.0812 
1424 CL     -11.4756    23.2481   -11.1006 Cl    285 CCL4  -0.0812 
1425 CL     -10.5992    22.0122   -13.5715 Cl    285 CCL4  -0.0812 
1426 CL     -12.3546    28.7797    -8.1819 Cl    286 CCL4  -0.0812 
1427 C      -13.0487    27.1541    -8.0060 C.3   286 CCL4   0.3246 
1428 CL     -12.3382    26.0770    -9.2230 Cl    286 CCL4  -0.0812 
1429 CL     -14.8085    27.2294    -8.2394 Cl    286 CCL4  -0.0812 
1430 CL     -12.6902    26.5319    -6.3819 Cl    286 CCL4  -0.0812 
1431 CL     -11.2541    23.4385    22.8576 Cl    287 CCL4  -0.0812 
1432 C      -12.3817    23.6261    21.4972 C.3   287 CCL4   0.3246 
1433 CL     -11.7756    24.8797    20.3941 Cl    287 CCL4  -0.0812 
1434 CL     -13.9745    24.1054    22.1201 Cl    287 CCL4  -0.0812 
1435 CL     -12.5230    22.0896    20.6154 Cl    287 CCL4  -0.0812 
1436 CL     -28.3596    24.2460    -2.6330 Cl    288 CCL4  -0.0812 
1437 C      -28.4215    23.1502    -4.0253 C.3   288 CCL4   0.3246 
1438 CL     -29.9736    23.3589    -4.8612 Cl    288 CCL4  -0.0812 
1439 CL     -28.2633    21.4737    -3.4661 Cl    288 CCL4  -0.0812 
1440 CL     -27.0892    23.5268    -5.1368 Cl    288 CCL4  -0.0812 
1441 CL     -23.5024    19.2112    -0.0938 Cl    289 CCL4  -0.0812 
1442 C      -21.8913    19.5029     0.5903 C.3   289 CCL4   0.3246 
1443 CL     -21.7135    21.2260     0.9629 Cl    289 CCL4  -0.0812 
1444 CL     -20.6441    19.0239    -0.5765 Cl    289 CCL4  -0.0812 
1445 CL     -21.7012    18.5550     2.0758 Cl    289 CCL4  -0.0812 
1446 CL     -10.3755    24.0709    -4.7723 Cl    290 CCL4  -0.0812 
1447 C      -10.3331    22.6628    -5.8540 C.3   290 CCL4   0.3246 
1448 CL      -8.6473    22.2532    -6.2280 Cl    290 CCL4  -0.0812 
1449 CL     -11.1913    23.0469    -7.3588 Cl    290 CCL4  -0.0812 
1450 CL     -11.1203    21.2827    -5.0610 Cl    290 CCL4  -0.0812 
1451 CL     -34.5057    21.6151    -2.1639 Cl    291 CCL4  -0.0812 
1452 C      -33.1855    20.5242    -1.6933 C.3   291 CCL4   0.3246 
1453 CL     -33.7249    18.8405    -1.8565 Cl    291 CCL4  -0.0812 
1454 CL     -32.7326    20.8341    -0.0071 Cl    291 CCL4  -0.0812 
1455 CL     -31.7800    20.8069    -2.7408 Cl    291 CCL4  -0.0812 
1456 CL     -18.2668    23.2552    -9.0803 Cl    292 CCL4  -0.0812 
1457 C      -19.8004    23.1216    -8.1915 C.3   292 CCL4   0.3246 
1458 CL     -21.1427    22.9630    -9.3420 Cl    292 CCL4  -0.0812 
1459 CL     -20.0442    24.5763    -7.2025 Cl    292 CCL4  -0.0812 
1460 CL     -19.7532    21.6941    -7.1379 Cl    292 CCL4  -0.0812 
1461 CL     -22.3709    24.2318    -1.7131 Cl    293 CCL4  -0.0812 
1462 C      -23.1898    23.0269    -2.7295 C.3   293 CCL4   0.3246 
1463 CL     -23.2482    23.6084    -4.4072 Cl    293 CCL4  -0.0812 
1464 CL     -24.8402    22.7601    -2.1302 Cl    293 CCL4  -0.0812 
1465 CL     -22.2933    21.4997    -2.6664 Cl    293 CCL4  -0.0812 
1466 CL     -27.3146    27.2639    -0.8307 Cl    294 CCL4  -0.0812 
1467 C      -25.6384    27.4063    -1.4002 C.3   294 CCL4   0.3246 
1468 CL     -25.3554    26.2575    -2.7237 Cl    294 CCL4  -0.0812 
1469 CL     -24.5274    27.0491    -0.0616 Cl    294 CCL4  -0.0812 
1470 CL     -25.3536    29.0589    -1.9859 Cl    294 CCL4  -0.0812 
1471 CL     -26.2040    26.8465    -6.3064 Cl    295 CCL4  -0.0812 
1472 C      -27.8848    27.3999    -6.1475 C.3   295 CCL4   0.3246 
1473 CL     -28.0496    29.0074    -6.8847 Cl    295 CCL4  -0.0812 
1474 CL     -28.3211    27.4915    -4.4289 Cl    295 CCL4  -0.0812 
1475 CL     -28.9691    26.2589    -6.9692 Cl    295 CCL4  -0.0812 
1476 CL     -14.2525    21.0627   -10.6602 Cl    296 CCL4  -0.0812 
1477 C      -13.2984    19.7966    -9.8659 C.3   296 CCL4   0.3246 
1478 CL     -13.1237    20.2009    -8.1468 Cl    296 CCL4  -0.0812 
1479 CL     -11.6933    19.6930   -10.6131 Cl    296 CCL4  -0.0812 
1480 CL     -14.1214    18.2340   -10.0472 Cl    296 CCL4  -0.0812 
1481 CL     -26.6285    21.0857     0.4736 Cl    297 CCL4  -0.0812 
1482 C      -27.8258    22.2802     1.0044 C.3   297 CCL4   0.3246 
1483 CL     -28.1554    22.0645     2.7343 Cl    297 CCL4  -0.0812 
1484 CL     -29.3242    22.0512     0.0829 Cl    297 CCL4  -0.0812 
1485 CL     -27.1935    23.9148     0.7243 Cl    297 CCL4  -0.0812 
1486 CL     -34.1685    23.0758     4.2833 Cl    298 CCL4  -0.0812 
1487 C      -32.5310    23.7364     4.1264 C.3   298 CCL4   0.3246 
1488 CL     -32.6174    25.4992     3.9296 Cl    298 CCL4  -0.0812 
1489 CL     -31.7373    23.0210     2.7097 Cl    298 CCL4  -0.0812 
1490 CL     -31.6030    23.3466     5.5866 Cl    298 CCL4  -0.0812 
1491 CL     -20.1552    23.3958   -15.4141 Cl    299 CCL4  -0.0812 
1492 C      -20.3180    24.7073   -14.2282 C.3   299 CCL4   0.3246 
1493 CL     -19.3195    26.0857   -14.7352 Cl    299 CCL4  -0.0812 
1494 CL     -19.7804    24.1440   -12.6319 Cl    299 CCL4  -0.0812 
1495 CL     -22.0190    25.2105   -14.1339 Cl    299 CCL4  -0.0812 
1496 CL     -13.2799    26.5496     6.2199 Cl    300 CCL4  -0.0812 
1497 C      -13.0255    25.7622     4.6483 C.3   300 CCL4   0.3246 
1498 CL     -12.8816    24.0081     4.8815 Cl    300 CCL4  -0.0812 
1499 CL     -11.5371    26.3919     3.9121 Cl    300 CCL4  -0.0812 
1500 CL     -14.4015    26.1042     3.5778 Cl    300 CCL4  -0.0812 
1501 CL     -13.9675    23.0283   -13.8839 Cl    301 CCL4  -0.0812 
1502 C      -14.3479    24.6779   -13.3524 C.3   301 CCL4   0.3246 
1503 CL     -14.8775    24.6545   -11.6557 Cl    301 CCL4  -0.0812 
1504 CL     -15.6473    25.3377   -14.3680 Cl    301 CCL4  -0.0812 
1505 CL     -12.8979    25.6928   -13.5078 Cl    301 CCL4  -0.0812 
1506 CL     -17.6379    23.6063   -18.6037 Cl    302 CCL4  -0.0812 
1507 C      -17.2997    22.0325   -17.8539 C.3   302 CCL4   0.3246 
1508 CL     -18.7927    21.0773   -17.8020 Cl    302 CCL4  -0.0812 
1509 CL     -16.7019    22.2858   -16.2025 Cl    302 CCL4  -0.0812 
1510 CL     -16.0739    21.1630   -18.8020 Cl    302 CCL4  -0.0812 
1511 CL     -18.8468    20.1761   -14.1377 Cl    303 CCL4  -0.0812 
1512 C      -18.0758    20.3951   -12.5553 C.3   303 CCL4   0.3246 
1513 CL     -17.0848    21.8641   -12.5871 Cl    303 CCL4  -0.0812 
1514 CL     -17.0452    18.9951   -12.1909 Cl    303 CCL4  -0.0812 
1515 CL     -19.3287    20.5570   -11.3094 Cl    303 CCL4  -0.0812 
1516 CL     -13.1596    17.5610   -15.9190 Cl    304 CCL4  -0.0812 
1517 C      -14.0129    19.0277   -15.4017 C.3   304 CCL4   0.3246 
1518 CL     -13.6741    19.3276   -13.6874 Cl    304 CCL4  -0.0812 
1519 CL     -15.7582    18.8131   -15.6429 Cl    304 CCL4  -0.0812 
1520 CL     -13.4555    20.4129   -16.3579 Cl    304 CCL4  -0.0812 
1521 CL     -16.5281    24.7122    -5.9826 Cl    305 CCL4  -0.0812 
1522 C      -15.3938    23.3838    -6.3008 C.3   305 CCL4   0.3246 
1523 CL     -14.7584    23.5271    -7.9524 Cl    305 CCL4  -0.0812 
1524 CL     -16.2343    21.8315    -6.1241 Cl    305 CCL4  -0.0812 
1525 CL     -14.0558    23.4635    -5.1391 Cl    305 CCL4  -0.0812 
1526 CL     -16.2566    18.1229    -3.0980 Cl    306 CCL4  -0.0812 
1527 C      -14.9056    19.0059    -2.3623 C.3   306 CCL4   0.3246 
1528 CL     -14.2116    20.1153    -3.5597 Cl    306 CCL4  -0.0812 
1529 CL     -13.6608    17.8574    -1.8418 Cl    306 CCL4  -0.0812 
1530 CL     -15.4887    19.9193    -0.9532 Cl    306 CCL4  -0.0812 
1531 CL     -31.9542    24.2068    -1.2635 Cl    307 CCL4  -0.0812 
1532 C      -31.5795    25.8078    -0.5952 C.3   307 CCL4   0.3246 
1533 CL     -31.0040    26.8702    -1.8972 Cl    307 CCL4  -0.0812 
1534 CL     -33.0418    26.5014     0.1362 Cl    307 CCL4  -0.0812 
1535 CL     -30.3196    25.6544     0.6449 Cl    307 CCL4  -0.0812 
1536 CL     -15.6445    27.4717     0.1216 Cl    308 CCL4  -0.0812 
1537 C      -16.2059    26.0524    -0.7871 C.3   308 CCL4   0.3246 
1538 CL     -15.9826    24.5930     0.1996 Cl    308 CCL4  -0.0812 
1539 CL     -15.2678    25.9130    -2.2902 Cl    308 CCL4  -0.0812 
1540 CL     -17.9299    26.2325    -1.1779 Cl    308 CCL4  -0.0812 
1541 CL     -19.0072    22.4245    -1.0357 Cl    309 CCL4  -0.0812 
1542 C      -18.4414    22.3362    -2.7154 C.3   309 CCL4   0.3246 
1543 CL     -18.7109    20.7024    -3.3531 Cl    309 CCL4  -0.0812 
1544 CL     -16.7108    22.7084    -2.7640 Cl    309 CCL4  -0.0812 
1545 CL     -19.3238    23.5141    -3.7082 Cl    309 CCL4  -0.0812 
1546 CL     -12.4345    24.9478     0.3769 Cl    310 CCL4  -0.0812 
1547 C      -12.3709    23.2236    -0.0462 C.3   310 CCL4   0.3246 
1548 CL     -10.6828    22.7314    -0.2657 Cl    310 CCL4  -0.0812 
1549 CL     -13.2482    22.9448    -1.5621 Cl    310 CCL4  -0.0812 
1550 CL     -13.1117    22.2691     1.2577 Cl    310 CCL4  -0.0812 
1551 CL     -23.5533    21.0044    14.2347 Cl    311 CCL4  -0.0812 
1552 C      -24.4477    21.4994    12.7851 C.3   311 CCL4   0.3246 
1553 CL     -25.4923    20.1673    12.2439 Cl    311 CCL4  -0.0812 
1554 CL     -23.2999    21.9145    11.4978 Cl    311 CCL4  -0.0812 
1555 CL     -25.4409    22.9198    13.1664 Cl    311 CCL4  -0.0812 
1556 CL     -30.0523    20.6128     8.1914 Cl    312 CCL4  -0.0812 
1557 C      -31.6135    19.8205     8.4892 C.3   312 CCL4   0.3246 
1558 CL     -31.5662    18.1581     7.8775 Cl    312 CCL4  -0.0812 
1559 CL     -32.9070    20.7036     7.6537 Cl    312 CCL4  -0.0812 
1560 CL     -31.9310    19.7971    10.2345 Cl    312 CCL4  -0.0812 
1561 CL     -26.6415    21.0250    16.1529 Cl    313 CCL4  -0.0812 
1562 C      -27.0806    19.7027    17.2521 C.3   313 CCL4   0.3246 
1563 CL     -25.9377    18.3606    17.0480 Cl    313 CCL4  -0.0812 
1564 CL     -28.7264    19.1435    16.8849 Cl    313 CCL4  -0.0812 
1565 CL     -27.0122    20.2847    18.9264 Cl    313 CCL4  -0.0812 
1566 CL     -28.9087    21.1733    13.3502 Cl    314 CCL4  -0.0812 
1567 C      -30.5552    21.4607    13.9479 C.3   314 CCL4   0.3246 
1568 CL     -30.4817    22.1590    15.5796 Cl    314 CCL4  -0.0812 
1569 CL     -31.4389    19.9252    14.0024 Cl    314 CCL4  -0.0812 
1570 CL     -31.3977    22.5817    12.8599 Cl    314 CCL4  -0.0812 
1571 CL     -10.0126    21.1750     8.7286 Cl    315 CCL4  -0.0812 
1572 C      -10.5906    20.2429     7.3340 C.3   315 CCL4   0.3246 
1573 CL     -10.7368    18.5304     7.7845 Cl    315 CCL4  -0.0812 
1574 CL      -9.4432    20.4078     5.9870 Cl    315 CCL4  -0.0812 
1575 CL     -12.1750    20.8659     6.8392 Cl    315 CCL4  -0.0812 
1576 CL     -18.1192    26.7467     2.6712 Cl    316 CCL4  -0.0812 
1577 C      -18.7392    25.1628     3.1782 C.3   316 CCL4   0.3246 
1578 CL     -19.8394    24.5346     1.9320 Cl    316 CCL4  -0.0812 
1579 CL     -19.6140    25.3442     4.7134 Cl    316 CCL4  -0.0812 
1580 CL     -17.3814    24.0374     3.3922 Cl    316 CCL4  -0.0812 
1581 CL     -23.0494    25.6554     7.0352 Cl    317 CCL4  -0.0812 
1582 C      -23.3011    24.3307     8.1899 C.3   317 CCL4   0.3246 
1583 CL     -23.6173    25.0092     9.8013 Cl    317 CCL4  -0.0812 
1584 CL     -21.8476    23.3113     8.2458 Cl    317 CCL4  -0.0812 
1585 CL     -24.6911    23.3545     7.6735 Cl    317 CCL4  -0.0812 
1586 CL     -28.7557    25.4456     3.9886 Cl    318 CCL4  -0.0812 
1587 C      -28.3672    25.4300     5.7220 C.3   318 CCL4   0.3246 
1588 CL     -29.7004    26.1753     6.6298 Cl    318 CCL4  -0.0812 
1589 CL     -26.8774    26.3575     6.0044 Cl    318 CCL4  -0.0812 
1590 CL     -28.1382    23.7513     6.2630 Cl    318 CCL4  -0.0812 
1591 CL     -27.4762    22.4897    10.1152 Cl    319 CCL4  -0.0812 
1592 C      -28.3105    24.0507    10.2768 C.3   319 CCL4   0.3246 
1593 CL     -27.3677    25.3115     9.4564 Cl    319 CCL4  -0.0812 
1594 CL     -28.4693    24.4752    11.9935 Cl    319 CCL4  -0.0812 
1595 CL     -29.9262    23.9383     9.5454 Cl    319 CCL4  -0.0812 
1596 CL      -7.8390    21.9610    14.2179 Cl    320 CCL4  -0.0812 
1597 C       -9.3803    22.6003    13.6125 C.3   320 CCL4   0.3246 
1598 CL      -9.6537    24.2197    14.2876 Cl    320 CCL4  -0.0812 
1599 CL     -10.7092    21.5244    14.0963 Cl    320 CCL4  -0.0812 
1600 CL      -9.3163    22.7040    11.8435 Cl    320 CCL4  -0.0812 
1601 CL      -8.2856    24.8267     9.0472 Cl    321 CCL4  -0.0812 
1602 C       -9.6305    25.1734     7.9421 C.3   321 CCL4   0.3246 
1603 CL      -9.4882    26.8359     7.3338 Cl    321 CCL4  -0.0812 
1604 CL     -11.1662    24.9862     8.8104 Cl    321 CCL4  -0.0812 
1605 CL      -9.5849    24.0446     6.5750 Cl    321 CCL4  -0.0812 
1606 CL     -31.8888    21.8849    21.8907 Cl    322 CCL4  -0.0812 
1607 C      -30.5946    21.0059    21.0491 C.3   322 CCL4   0.3246 
1608 CL     -31.0300    19.2874    20.9251 Cl    322 CCL4  -0.0812 
1609 CL     -29.0843    21.1736    21.9629 Cl    322 CCL4  -0.0812 
1610 CL     -30.3708    21.6841    19.4224 Cl    322 CCL4  -0.0812 
1611 CL     -21.0215    20.9171    16.8362 Cl    323 CCL4  -0.0812 
1612 C      -22.0542    21.9004    17.8938 C.3   323 CCL4   0.3246 
1613 CL     -22.7780    23.2259    16.9585 Cl    323 CCL4  -0.0812 
1614 CL     -21.0706    22.5801    19.2068 Cl    323 CCL4  -0.0812 
1615 CL     -23.3436    20.8837    18.5732 Cl    323 CCL4  -0.0812 
1616 CL     -33.9592    21.6449    18.7281 Cl    324 CCL4  -0.0812 
1617 C      -34.0345    20.3710    17.4934 C.3   324 CCL4   0.3246 
1618 CL     -34.2606    21.1134    15.8941 Cl    324 CCL4  -0.0812 
1619 CL     -35.4010    19.2915    17.8462 Cl    324 CCL4  -0.0812 
1620 CL     -32.5220    19.4376    17.5120 Cl    324 CCL4  -0.0812 
1621 CL     -15.9947    19.6926    15.8260 Cl    325 CCL4  -0.0812 
1622 C      -14.4318    19.4677    16.6357 C.3   325 CCL4   0.3246 
1623 CL     -14.6842    18.7092    18.2218 Cl    325 CCL4  -0.0812 
1624 CL     -13.6427    21.0426    16.8582 Cl    325 CCL4  -0.0812 
1625 CL     -13.4063    18.4264    15.6306 Cl    325 CCL4  -0.0812 
1626 CL     -20.0980    24.9137    11.8062 Cl    326 CCL4  -0.0812 
1627 C      -20.6745    24.8422    13.4856 C.3   326 CCL4   0.3246 
1628 CL     -19.8773    26.1096    14.4410 Cl    326 CCL4  -0.0812 
1629 CL     -20.2889    23.2577    14.1819 Cl    326 CCL4  -0.0812 
1630 CL     -22.4334    25.0860    13.5194 Cl    326 CCL4  -0.0812 
1631 CL     -14.2620    21.5501    13.3310 Cl    327 CCL4  -0.0812 
1632 C      -14.0359    23.2662    12.9439 C.3   327 CCL4   0.3246 
1633 CL     -13.4623    24.1236    14.3904 Cl    327 CCL4  -0.0812 
1634 CL     -15.5772    23.9670    12.4079 Cl    327 CCL4  -0.0812 
1635 CL     -12.8373    23.4247    11.6453 Cl    327 CCL4  -0.0812 
1636 CL     -18.6332    19.2598     5.5830 Cl    328 CCL4  -0.0812 
1637 C      -19.5703    20.6665     5.0557 C.3   328 CCL4   0.3246 
1638 CL     -19.1794    22.0569     6.0874 Cl    328 CCL4  -0.0812 
1639 CL     -21.3044    20.3060     5.1789 Cl    328 CCL4  -0.0812 
1640 CL     -19.1580    21.0314     3.3687 Cl    328 CCL4  -0.0812 
1641 CL     -15.7664    26.0306     9.3190 Cl    329 CCL4  -0.0812 
1642 C      -16.0116    24.5392     8.3860 C.3   329 CCL4   0.3246 
1643 CL     -16.4761    24.9569     6.7241 Cl    329 CCL4  -0.0812 
1644 CL     -17.3044    23.5778     9.1343 Cl    329 CCL4  -0.0812 
1645 CL     -14.5008    23.6058     8.3693 Cl    329 CCL4  -0.0812 
1646 CL     -19.7948    21.5199    10.7826 Cl    330 CCL4  -0.0812 
1647 C      -19.0990    20.3661    11.9357 C.3   330 CCL4   0.3246 
1648 CL     -17.7507    21.1222    12.8026 Cl    330 CCL4  -0.0812 
1649 CL     -18.5097    18.9476    11.0573 Cl    330 CCL4  -0.0812 
1650 CL     -20.3382    19.8667    13.1003 Cl    330 CCL4  -0.0812 
1651 CL     -14.3086    18.1860     8.8247 Cl    331 CCL4  -0.0812 
1652 C      -14.3570    19.1962    10.2821 C.3   331 CCL4   0.3246 
1653 CL     -14.9249    18.2293    11.6619 Cl    331 CCL4  -0.0812 
1654 CL     -15.4612    20.5578    10.0096 Cl    331 CCL4  -0.0812 
1655 CL     -12.7285    19.8148    10.6238 Cl    331 CCL4  -0.0812 
1656 CL     -18.3510    24.5869    17.7945 Cl    332 CCL4  -0.0812 
1657 C      -17.1343    23.3300    17.4874 C.3   332 CCL4   0.3246 
1658 CL     -16.8568    23.2015    15.7394 Cl    332 CCL4  -0.0812 
1659 CL     -17.7203    21.7743    18.1105 Cl    332 CCL4  -0.0812 
1660 CL     -15.6123    23.7588    18.3000 Cl    332 CCL4  -0.0812 
1661 CL      -9.3863   -13.8269   -13.3643 Cl    333 CCL4  -0.0812 
1662 C       -7.9987   -12.7294   -13.4959 C.3   333 CCL4   0.3246 
1663 CL      -8.4328   -11.3441   -14.5210 Cl    333 CCL4  -0.0812 
1664 CL      -6.6370   -13.6026   -14.2240 Cl    333 CCL4  -0.0812 
1665 CL      -7.5401   -12.1564   -11.8778 Cl    333 CCL4  -0.0812 
1666 CL       2.9784   -16.6299   -14.9578 Cl    334 CCL4  -0.0812 
1667 C        3.6359   -15.7425   -13.5672 C.3   334 CCL4   0.3246 
1668 CL       3.9346   -16.8713   -12.2292 Cl    334 CCL4  -0.0812 
1669 CL       2.4689   -14.5084   -13.0501 Cl    334 CCL4  -0.0812 
1670 CL       5.1645   -14.9661   -14.0321 Cl    334 CCL4  -0.0812 
1671 CL      -4.3384   -14.1002   -11.5224 Cl    335 CCL4  -0.0812 
1672 C       -3.9857   -15.8358   -11.6098 C.3   335 CCL4   0.3246 
1673 CL      -4.0196   -16.5276    -9.9750 Cl    335 CCL4  -0.0812 
1674 CL      -2.3801   -16.0768   -12.3216 Cl    335 CCL4  -0.0812 
1675 CL      -5.2004   -16.6405   -12.6242 Cl    335 CCL4  -0.0812 
1676 CL      -4.3070    -6.3116   -13.2619 Cl    336 CCL4  -0.0812 
1677 C       -3.5424    -4.7902   -12.7674 C.3   336 CCL4   0.3246 
1678 CL      -4.0450    -4.3749   -11.1177 Cl    336 CCL4  -0.0812 
1679 CL      -4.0478    -3.5007   -13.8723 Cl    336 CCL4  -0.0812 
1680 CL      -1.7776    -4.9692   -12.8232 Cl    336 CCL4  -0.0812 
1681 CL       0.5661    36.5531   -10.2373 Cl    337 CCL4  -0.0812 
1682 C        0.5091    34.8082   -10.5635 C.3   337 CCL4   0.3246 
1683 CL       1.8844    34.0110    -9.7709 Cl    337 CCL4  -0.0812 
1684 CL       0.5891    34.5316   -12.3172 Cl    337 CCL4  -0.0812 
1685 CL      -1.0055    34.1343    -9.9266 Cl    337 CCL4  -0.0812 
1686 CL       3.8941    -3.8143   -17.5102 Cl    338 CCL4  -0.0812 
1687 C        2.9178    -2.6545   -16.5888 C.3   338 CCL4   0.3246 
1688 CL       1.3761    -2.3808   -17.4275 Cl    338 CCL4  -0.0812 
1689 CL       3.8021    -1.1234   -16.4588 Cl    338 CCL4  -0.0812 
1690 CL       2.6117    -3.2938   -14.9602 Cl    338 CCL4  -0.0812 
1691 CL      -5.7824    -5.3866    23.5748 Cl    339 CCL4  -0.0812 
1692 C       -4.4115    -5.1298    22.4778 C.3   339 CCL4   0.3246 
1693 CL      -3.8196    -3.4611    22.6131 Cl    339 CCL4  -0.0812 
1694 CL      -4.9323    -5.4410    20.8161 Cl    339 CCL4  -0.0812 
1695 CL      -3.1054    -6.2472    22.8965 Cl    339 CCL4  -0.0812 
1696 CL      -1.8179    37.7494     2.3206 Cl    340 CCL4  -0.0812 
1697 C       -0.9273    37.1007     0.9270 C.3   340 CCL4   0.3246 
1698 CL      -0.4024    38.4364    -0.1162 Cl    340 CCL4  -0.0812 
1699 CL      -1.9837    36.0126     0.0018 Cl    340 CCL4  -0.0812 
1700 CL       0.4955    36.2025     1.4968 Cl    340 CCL4  -0.0812 
1701 CL      -1.4244   -13.2631    22.7512 Cl    341 CCL4  -0.0812 
1702 C       -1.7534   -14.8348    23.5085 C.3   341 CCL4   0.3246 
1703 CL      -3.3412   -14.7949    24.3028 Cl    341 CCL4  -0.0812 
1704 CL      -0.4989   -15.1793    24.7187 Cl    341 CCL4  -0.0812 
1705 CL      -1.7507   -16.1015    22.2620 Cl    341 CCL4  -0.0812 
1706 CL      -8.1706    -4.8821   -13.1749 Cl    342 CCL4  -0.0812 
1707 C       -8.1296    -4.9715   -11.4004 C.3   342 CCL4   0.3246 
1708 CL      -9.7575    -5.3087   -10.7828 Cl    342 CCL4  -0.0812 
1709 CL      -7.5591    -3.4282   -10.7368 Cl    342 CCL4  -0.0812 
1710 CL      -7.0308    -6.2704   -10.8988 Cl    342 CCL4  -0.0812 
1711 CL       3.8950    36.0746     0.1778 Cl    343 CCL4  -0.0812 
1712 C        4.9269    36.6741     1.4898 C.3   343 CCL4   0.3246 
1713 CL       4.4818    35.8640     3.0075 Cl    343 CCL4  -0.0812 
1714 CL       4.6986    38.4232     1.6674 Cl    343 CCL4  -0.0812 
1715 CL       6.6275    36.3364     1.1015 Cl    343 CCL4  -0.0812 
1716 CL       1.6810    35.3362    -5.7499 Cl    344 CCL4  -0.0812 
1717 C        2.0498    36.2883    -4.2957 C.3   344 CCL4   0.3246 
1718 CL       3.0991    37.6546    -4.7256 Cl    344 CCL4  -0.0812 
1719 CL       2.8827    35.2554    -3.1176 Cl    344 CCL4  -0.0812 
1720 CL       0.5392    36.8993    -3.5853 Cl    344 CCL4  -0.0812 
1721 CL       0.5190   -14.2365    -7.0393 Cl    345 CCL4  -0.0812 
1722 C       -1.2313   -14.4998    -7.1179 C.3   345 CCL4   0.3246 
1723 CL      -2.0098   -13.7363    -5.7156 Cl    345 CCL4  -0.0812 
1724 CL      -1.5629   -16.2434    -7.1050 Cl    345 CCL4  -0.0812 
1725 CL      -1.8619   -13.7849    -8.6141 Cl    345 CCL4  -0.0812 
1726 CL      -1.6618    -5.4716    -2.1168 Cl    346 CCL4  -0.0812 
1727 C       -2.6601    -4.2795    -1.2598 C.3   346 CCL4   0.3246 
1728 CL      -3.1530    -4.9307     0.3162 Cl    346 CCL4  -0.0812 
1729 CL      -4.1010    -3.9246    -2.2314 Cl    346 CCL4  -0.0812 
1730 CL      -1.7287    -2.7898    -1.0079 Cl    346 CCL4  -0.0812 
1731 CL       5.9603   -12.9718    -3.9288 Cl    347 CCL4  -0.0812 
1732 C        6.9627   -13.9649    -2.8503 C.3   347 CCL4   0.3246 
1733 CL       6.3372   -15.6271    -2.8201 Cl    347 CCL4  -0.0812 
1734 CL       6.9165   -13.2928    -1.2103 Cl    347 CCL4  -0.0812 
1735 CL       8.6404   -13.9665    -3.4327 Cl    347 CCL4  -0.0812 
1736 CL       0.1854   -11.4314   -14.3229 Cl    348 CCL4  -0.0812 
1737 C       -1.0195   -11.5523   -13.0240 C.3   348 CCL4   0.3246 
1738 CL      -2.6334   -11.7484   -13.7371 Cl    348 CCL4  -0.0812 
1739 CL      -0.9836   -10.0775   -12.0378 Cl    348 CCL4  -0.0812 
1740 CL      -0.6466   -12.9505   -11.9965 Cl    348 CCL4  -0.0812 
1741 CL       1.0854    -5.6807    -7.5582 Cl    349 CCL4  -0.0812 
1742 C       -0.1529    -6.4901    -8.5386 C.3   349 CCL4   0.3246 
1743 CL      -1.2260    -7.4328    -7.4856 Cl    349 CCL4  -0.0812 
1744 CL       0.6200    -7.5692    -9.7187 Cl    349 CCL4  -0.0812 
1745 CL      -1.1006    -5.2653    -9.3953 Cl    349 CCL4  -0.0812 
1746 CL      -3.4246    -8.1182   -10.2695 Cl    350 CCL4  -0.0812 
1747 C       -4.5325    -9.4974   -10.4177 C.3   350 CCL4   0.3246 
1748 CL      -3.6782   -10.9929    -9.9948 Cl    350 CCL4  -0.0812 
1749 CL      -5.1250    -9.6044   -12.0876 Cl    350 CCL4  -0.0812 
1750 CL      -5.9039    -9.2789    -9.3152 Cl    350 CCL4  -0.0812 
1751 CL       1.0157    -8.3450   -16.3388 Cl    351 CCL4  -0.0812 
1752 C        0.2816    -7.2793   -15.1205 C.3   351 CCL4   0.3246 
1753 CL       1.3044    -7.2129   -13.6709 Cl    351 CCL4  -0.0812 
1754 CL      -1.3135    -7.9118   -14.6738 Cl    351 CCL4  -0.0812 
1755 CL       0.1105    -5.6454   -15.7925 Cl    351 CCL4  -0.0812 
1756 CL      -5.2314    -3.1185    -6.7830 Cl    352 CCL4  -0.0812 
1757 C       -4.5727    -4.7126    -6.3579 C.3   352 CCL4   0.3246 
1758 CL      -5.5964    -5.4584    -5.1159 Cl    352 CCL4  -0.0812 
1759 CL      -2.9177    -4.5348    -5.7350 Cl    352 CCL4  -0.0812 
1760 CL      -4.5497    -5.7461    -7.7997 Cl    352 CCL4  -0.0812 
1761 CL      -4.9356   -11.7110   -16.6542 Cl    353 CCL4  -0.0812 
1762 C       -4.4241   -10.0525   -17.0090 C.3   353 CCL4   0.3246 
1763 CL      -5.1184    -9.5452   -18.5573 Cl    353 CCL4  -0.0812 
1764 CL      -2.6537    -9.9805   -17.1117 Cl    353 CCL4  -0.0812 
1765 CL      -5.0007    -8.9769   -15.7208 Cl    353 CCL4  -0.0812 
1766 CL      13.7906   -14.1039    -6.3477 Cl    354 CCL4  -0.0812 
1767 C       12.2262   -13.6791    -5.6272 C.3   354 CCL4   0.3246 
1768 CL      12.3940   -13.6119    -3.8606 Cl    354 CCL4  -0.0812 
1769 CL      11.0206   -14.9051    -6.0723 Cl    354 CCL4  -0.0812 
1770 CL      11.7060   -12.0945    -6.2327 Cl    354 CCL4  -0.0812 
1771 CL       3.2500    -7.1877    -3.0137 Cl    355 CCL4  -0.0812 
1772 C        2.2339    -7.2219    -1.5594 C.3   355 CCL4   0.3246 
1773 CL       3.1523    -7.9295    -0.2153 Cl    355 CCL4  -0.0812 
1774 CL       0.7857    -8.2017    -1.8766 Cl    355 CCL4  -0.0812 
1775 CL       1.7530    -5.5669    -1.1310 Cl    355 CCL4  -0.0812 
1776 CL       1.6295    -8.8108    -5.8987 Cl    356 CCL4  -0.0812 
1777 C        1.9781   -10.2239    -6.9134 C.3   356 CCL4   0.3246 
1778 CL       0.5243   -10.6848    -7.8272 Cl    356 CCL4  -0.0812 
1779 CL       2.4721   -11.5670    -5.8697 Cl    356 CCL4  -0.0812 
1780 CL       3.2921    -9.8379    -8.0450 Cl    356 CCL4  -0.0812 
1781 CL       6.7014    -8.2719    -7.5916 Cl    357 CCL4  -0.0812 
1782 C        5.9669    -7.8463    -6.0360 C.3   357 CCL4   0.3246 
1783 CL       4.5546    -6.8102    -6.3219 Cl    357 CCL4  -0.0812 
1784 CL       7.1547    -6.9766    -5.0470 Cl    357 CCL4  -0.0812 
1785 CL       5.4647    -9.3251    -5.1906 Cl    357 CCL4  -0.0812 
1786 CL      -4.9424   -14.4057     0.6258 Cl    358 CCL4  -0.0812 
1787 C       -5.1638   -14.1448    -1.1151 C.3   358 CCL4   0.3246 
1788 CL      -6.1703   -12.7068    -1.3634 Cl    358 CCL4  -0.0812 
1789 CL      -5.9678   -15.5589    -1.8292 Cl    358 CCL4  -0.0812 
1790 CL      -3.5813   -13.9050    -1.8868 Cl    358 CCL4  -0.0812 
1791 CL      -3.2977    -8.0987    -4.6838 Cl    359 CCL4  -0.0812 
1792 C       -3.1268    -9.8537    -4.8744 C.3   359 CCL4   0.3246 
1793 CL      -3.6935   -10.3358    -6.4860 Cl    359 CCL4  -0.0812 
1794 CL      -4.0928   -10.6823    -3.6375 Cl    359 CCL4  -0.0812 
1795 CL      -1.4194   -10.2969    -4.6882 Cl    359 CCL4  -0.0812 
1796 CL       3.4750    -1.4857    -4.3602 Cl    360 CCL4  -0.0812 
1797 C        3.5924    -3.1147    -5.0481 C.3   360 CCL4   0.3246 
1798 CL       5.1201    -3.8541    -4.5306 Cl    360 CCL4  -0.0812 
1799 CL       3.5498    -3.0186    -6.8220 Cl    360 CCL4  -0.0812 
1800 CL       2.2275    -4.0921    -4.4701 Cl    360 CCL4  -0.0812 
1801 CL      -7.0835    -6.4042    -1.8864 Cl    361 CCL4  -0.0812 
1802 C       -6.2439    -7.6689    -0.9667 C.3   361 CCL4   0.3246 
1803 CL      -6.9539    -9.2468    -1.3466 Cl    361 CCL4  -0.0812 
1804 CL      -6.4130    -7.3489     0.7703 Cl    361 CCL4  -0.0812 
1805 CL      -4.5260    -7.6825    -1.4058 Cl    361 CCL4  -0.0812 
1806 CL      -1.8410   -10.7638    -0.9206 Cl    362 CCL4  -0.0812 
1807 C       -2.2316   -10.2520     0.7317 C.3   362 CCL4   0.3246 
1808 CL      -1.4131   -11.3209     1.8894 Cl    362 CCL4  -0.0812 
1809 CL      -3.9883   -10.3535     0.9766 Cl    362 CCL4  -0.0812 
1810 CL      -1.6839    -8.5781     0.9740 Cl    362 CCL4  -0.0812 
1811 CL       1.6888   -11.3265    -0.1841 Cl    363 CCL4  -0.0812 
1812 C        2.2671   -11.9817    -1.7296 C.3   363 CCL4   0.3246 
1813 CL       3.1059   -13.5196    -1.4459 Cl    363 CCL4  -0.0812 
1814 CL       3.3880   -10.8279    -2.4805 Cl    363 CCL4  -0.0812 
1815 CL       0.8865   -12.2576    -2.8097 Cl    363 CCL4  -0.0812 
1816 CL      10.0491    -6.7469    -7.5384 Cl    364 CCL4  -0.0812 
1817 C       11.0180    -7.3612    -6.1855 C.3   364 CCL4   0.3246 
1818 CL      11.0258    -6.1650    -4.8726 Cl    364 CCL4  -0.0812 
1819 CL      12.6838    -7.6535    -6.7328 Cl    364 CCL4  -0.0812 
1820 CL      10.3075    -8.8774    -5.5992 Cl    364 CCL4  -0.0812 
1821 CL      -8.3572   -11.3372    -3.9330 Cl    365 CCL4  -0.0812 
1822 C       -8.1092   -10.2355    -5.3006 C.3   365 CCL4   0.3246 
1823 CL      -6.9333    -8.9840    -4.8537 Cl    365 CCL4  -0.0812 
1824 CL      -9.6495    -9.4717    -5.7324 Cl    365 CCL4  -0.0812 
1825 CL      -7.4967   -11.1528    -6.6879 Cl    365 CCL4  -0.0812 
1826 CL      -5.6272   -13.6851    -4.9819 Cl    366 CCL4  -0.0812 
1827 C       -5.9486   -14.6543    -6.4333 C.3   366 CCL4   0.3246 
1828 CL      -7.6909   -14.9717    -6.5586 Cl    366 CCL4  -0.0812 
1829 CL      -5.0798   -16.1977    -6.3167 Cl    366 CCL4  -0.0812 
1830 CL      -5.3959   -13.7692    -7.8708 Cl    366 CCL4  -0.0812 
1831 CL       5.1577   -10.9564     0.6739 Cl    367 CCL4  -0.0812 
1832 C        5.1219   -10.2710     2.3074 C.3   367 CCL4   0.3246 
1833 CL       6.0486    -8.7589     2.3131 Cl    367 CCL4  -0.0812 
1834 CL       5.8447   -11.4172     3.4529 Cl    367 CCL4  -0.0812 
1835 CL       3.4407    -9.9523     2.7804 Cl    367 CCL4  -0.0812 
1836 CL      10.4958   -12.5305   -12.8342 Cl    368 CCL4  -0.0812 
1837 C        9.9550   -10.8578   -13.0865 C.3   368 CCL4   0.3246 
1838 CL      10.1362   -10.4220   -14.7993 Cl    368 CCL4  -0.0812 
1839 CL      10.9367    -9.7636   -12.0896 Cl    368 CCL4  -0.0812 
1840 CL       8.2486   -10.7176   -12.6213 Cl    368 CCL4  -0.0812 
1841 CL       8.0736    -7.5182   -10.9509 Cl    369 CCL4  -0.0812 
1842 C        9.0046    -6.2735   -11.8066 C.3   369 CCL4   0.3246 
1843 CL      10.5076    -5.9533   -10.9233 Cl    369 CCL4  -0.0812 
1844 CL       8.0407    -4.7872   -11.9100 Cl    369 CCL4  -0.0812 
1845 CL       9.4036    -6.8341   -13.4424 Cl    369 CCL4  -0.0812 
1846 CL       4.3085    -6.9276   -15.9695 Cl    370 CCL4  -0.0812 
1847 C        6.0656    -7.1478   -16.0860 C.3   370 CCL4   0.3246 
1848 CL       6.5962    -8.2872   -14.8346 Cl    370 CCL4  -0.0812 
1849 CL       6.8764    -5.5859   -15.8506 Cl    370 CCL4  -0.0812 
1850 CL       6.4860    -7.7925   -17.6863 Cl    370 CCL4  -0.0812 
1851 CL       8.5166    34.7328    -5.8892 Cl    371 CCL4  -0.0812 
1852 C        7.1639    35.5967    -6.6498 C.3   371 CCL4   0.3246 
1853 CL       5.6438    35.1342    -5.8549 Cl    371 CCL4  -0.0812 
1854 CL       7.0830    35.1807    -8.3751 Cl    371 CCL4  -0.0812 
1855 CL       7.4154    37.3432    -6.4784 Cl    371 CCL4  -0.0812 
1856 CL       4.8425   -13.3904    -7.4946 Cl    372 CCL4  -0.0812 
1857 C        4.2428   -14.2978    -8.8931 C.3   372 CCL4   0.3246 
1858 CL       3.6838   -15.8950    -8.3648 Cl    372 CCL4  -0.0812 
1859 CL       5.5522   -14.4965   -10.0754 Cl    372 CCL4  -0.0812 
1860 CL       2.8933   -13.4127    -9.6295 Cl    372 CCL4  -0.0812 
1861 CL       9.2699   -10.4448     3.5351 Cl    373 CCL4  -0.0812 
1862 C       10.0002   -11.9593     2.9652 C.3   373 CCL4   0.3246 
1863 CL      11.5240   -11.5940     2.1305 Cl    373 CCL4  -0.0812 
1864 CL       8.8907   -12.7812     1.8475 Cl    373 CCL4  -0.0812 
1865 CL      10.3201   -13.0188     4.3516 Cl    373 CCL4  -0.0812 
1866 CL       6.9490    -1.9142    -7.7992 Cl    374 CCL4  -0.0812 
1867 C        7.9257    -3.3923    -7.6877 C.3   374 CCL4   0.3246 
1868 CL       8.4211    -3.6510    -6.0021 Cl    374 CCL4  -0.0812 
1869 CL       9.3692    -3.2310    -8.7079 Cl    374 CCL4  -0.0812 
1870 CL       6.9636    -4.7748    -8.2435 Cl    374 CCL4  -0.0812 
1871 CL       5.3296    -4.8665    -1.1387 Cl    375 CCL4  -0.0812 
1872 C        6.8412    -5.7893    -1.0383 C.3   375 CCL4   0.3246 
1873 CL       8.0464    -5.0770    -2.1326 Cl    375 CCL4  -0.0812 
1874 CL       6.5248    -7.4695    -1.5114 Cl    375 CCL4  -0.0812 
1875 CL       7.4580    -5.7477     0.6277 Cl    375 CCL4  -0.0812 
1876 CL      10.6784   -11.2359    -1.6328 Cl    376 CCL4  -0.0812 
1877 C        9.4675    -9.9375    -1.6606 C.3   376 CCL4   0.3246 
1878 CL       8.2833   -10.2608    -2.9444 Cl    376 CCL4  -0.0812 
1879 CL      10.2676    -8.3813    -1.9658 Cl    376 CCL4  -0.0812 
1880 CL       8.6420    -9.8715    -0.0914 Cl    376 CCL4  -0.0812 
1881 CL       4.1232    -6.7300     4.3399 Cl    377 CCL4  -0.0812 
1882 C        3.2359    -5.4786     3.4558 C.3   377 CCL4   0.3246 
1883 CL       4.3094    -4.7420     2.2494 Cl    377 CCL4  -0.0812 
1884 CL       2.6827    -4.2348     4.5936 Cl    377 CCL4  -0.0812 
1885 CL       1.8346    -6.2124     2.6479 Cl    377 CCL4  -0.0812 
1886 CL       3.2306   -12.7023    23.8896 Cl    378 CCL4  -0.0812 
1887 C        4.5877   -11.9829    22.9998 C.3   378 CCL4   0.3246 
1888 CL       5.9514   -11.7091    24.1056 Cl    378 CCL4  -0.0812 
1889 CL       4.0699   -10.4369    22.2962 Cl    378 CCL4  -0.0812 
1890 CL       5.0985   -13.0868    21.7063 Cl    378 CCL4  -0.0812 
1891 CL       9.5832   -10.3758    -8.8400 Cl    379 CCL4  -0.0812 
1892 C        8.3564   -11.6098    -8.4887 C.3   379 CCL4   0.3246 
1893 CL       8.0372   -11.6485    -6.7411 Cl    379 CCL4  -0.0812 
1894 CL       8.9461   -13.1984    -9.0184 Cl    379 CCL4  -0.0812 
1895 CL       6.8614   -11.2175    -9.3617 Cl    379 CCL4  -0.0812 
1896 CL       3.5027    -9.8432   -14.0270 Cl    380 CCL4  -0.0812 
1897 C        3.8963   -10.2676   -12.3531 C.3   380 CCL4   0.3246 
1898 CL       2.3965   -10.4345   -11.4247 Cl    380 CCL4  -0.0812 
1899 CL       4.8965    -8.9929   -11.6334 Cl    380 CCL4  -0.0812 
1900 CL       4.7844   -11.8012   -12.3319 Cl    380 CCL4  -0.0812 
1901 CL       4.4400    -5.4711   -12.5984 Cl    381 CCL4  -0.0812 
1902 C        3.7197    -4.8589   -11.0944 C.3   381 CCL4   0.3246 
1903 CL       4.5670    -3.3863   -10.5884 Cl    381 CCL4  -0.0812 
1904 CL       3.8777    -6.0884    -9.8244 Cl    381 CCL4  -0.0812 
1905 CL       2.0025    -4.4854   -11.3600 Cl    381 CCL4  -0.0812 
1906 CL      -9.5153   -14.1431    11.3034 Cl    382 CCL4  -0.0812 
1907 C       -9.6497   -12.4871    11.9260 C.3   382 CCL4   0.3246 
1908 CL     -11.0732   -11.6945    11.2194 Cl    382 CCL4  -0.0812 
1909 CL      -8.1875   -11.5873    11.4857 Cl    382 CCL4  -0.0812 
1910 CL      -9.8168   -12.5240    13.6933 Cl    382 CCL4  -0.0812 
1911 CL       2.5577   -16.1249     8.1627 Cl    383 CCL4  -0.0812 
1912 C        2.9787   -16.2561     9.8839 C.3   383 CCL4   0.3246 
1913 CL       2.5302   -17.8722    10.4685 Cl    383 CCL4  -0.0812 
1914 CL       2.0963   -15.0265    10.8123 Cl    383 CCL4  -0.0812 
1915 CL       4.7262   -16.0056    10.0938 Cl    383 CCL4  -0.0812 
1916 CL      -5.1261   -14.6691    12.8618 Cl    384 CCL4  -0.0812 
1917 C       -4.7628   -16.3089    13.4390 C.3   384 CCL4   0.3246 
1918 CL      -4.5538   -16.2852    15.2017 Cl    384 CCL4  -0.0812 
1919 CL      -3.2719   -16.8941    12.6746 Cl    384 CCL4  -0.0812 
1920 CL      -6.1008   -17.3965    13.0178 Cl    384 CCL4  -0.0812 
1921 CL      -5.0184    -6.1691    12.8044 Cl    385 CCL4  -0.0812 
1922 C       -4.6443    -5.5303    14.4176 C.3   385 CCL4   0.3246 
1923 CL      -6.0872    -5.5866    15.4457 Cl    385 CCL4  -0.0812 
1924 CL      -4.0808    -3.8571    14.2705 Cl    385 CCL4  -0.0812 
1925 CL      -3.3758    -6.5104    15.1626 Cl    385 CCL4  -0.0812 
1926 CL       0.4193    35.7135    13.5148 Cl    386 CCL4  -0.0812 
1927 C        0.4003    34.4282    14.7375 C.3   386 CCL4   0.3246 
1928 CL       1.5026    34.8511    16.0636 Cl    386 CCL4  -0.0812 
1929 CL       0.9325    32.9053    13.9939 Cl    386 CCL4  -0.0812 
1930 CL      -1.2480    34.2420    15.3758 Cl    386 CCL4  -0.0812 
1931 CL       2.2226    -1.4291     9.6795 Cl    387 CCL4  -0.0812 
1932 C        1.1853    -2.8546     9.4744 C.3   387 CCL4   0.3246 
1933 CL       1.7054    -3.7780     8.0520 Cl    387 CCL4  -0.0812 
1934 CL      -0.4928    -2.3320     9.2463 Cl    387 CCL4  -0.0812 
1935 CL       1.3009    -3.8782    10.9189 Cl    387 CCL4  -0.0812 
1936 CL      -5.1882    -5.6838     9.1377 Cl    388 CCL4  -0.0812 
1937 C       -3.5460    -5.0137     9.2302 C.3   388 CCL4   0.3246 
1938 CL      -3.4578    -3.8363    10.5566 Cl    388 CCL4  -0.0812 
1939 CL      -3.1472    -4.2141     7.6977 Cl    388 CCL4  -0.0812 
1940 CL      -2.3841    -6.3206     9.5252 Cl    388 CCL4  -0.0812 
1941 CL      -0.5016   -14.2183     8.4638 Cl    389 CCL4  -0.0812 
1942 C       -1.6610   -15.5291     8.7654 C.3   389 CCL4   0.3246 
1943 CL      -3.0974   -14.8683     9.5684 Cl    389 CCL4  -0.0812 
1944 CL      -0.9187   -16.7579     9.8098 Cl    389 CCL4  -0.0812 
1945 CL      -2.1308   -16.2737     7.2232 Cl    389 CCL4  -0.0812 
1946 CL      -6.9682    35.5747     7.3208 Cl    390 CCL4  -0.0812 
1947 C       -6.6934    35.6248     9.0748 C.3   390 CCL4   0.3246 
1948 CL      -8.0183    34.7844     9.9091 Cl    390 CCL4  -0.0812 
1949 CL      -6.6364    37.3126     9.6166 Cl    390 CCL4  -0.0812 
1950 CL      -5.1502    34.8300     9.4539 Cl    390 CCL4  -0.0812 
1951 CL      -8.1743    -4.3254    10.5964 Cl    391 CCL4  -0.0812 
1952 C       -8.6313    -4.2075    12.3072 C.3   391 CCL4   0.3246 
1953 CL     -10.2809    -3.5680    12.4349 Cl    391 CCL4  -0.0812 
1954 CL      -7.5048    -3.1298    13.1524 Cl    391 CCL4  -0.0812 
1955 CL      -8.5643    -5.8130    13.0502 Cl    391 CCL4  -0.0812 
1956 CL      -4.8843    -3.5558     4.6471 Cl    392 CCL4  -0.0812 
1957 C       -6.5002    -3.7865     3.9602 C.3   392 CCL4   0.3246 
1958 CL      -7.4839    -2.3321     4.2494 Cl    392 CCL4  -0.0812 
1959 CL      -7.2643    -5.1924     4.7292 Cl    392 CCL4  -0.0812 
1960 CL      -6.3584    -4.0658     2.2145 Cl    392 CCL4  -0.0812 
1961 CL       1.0046    36.2531    19.4070 Cl    393 CCL4  -0.0812 
1962 C        2.0715    36.2662    20.8248 C.3   393 CCL4   0.3246 
1963 CL       3.7616    36.3929    20.2960 Cl    393 CCL4  -0.0812 
1964 CL       1.8452    34.7650    21.7463 Cl    393 CCL4  -0.0812 
1965 CL       1.6727    37.6546    21.8524 Cl    393 CCL4  -0.0812 
1966 CL      -0.6168   -14.9160    16.4570 Cl    394 CCL4  -0.0812 
1967 C       -1.8423   -14.4659    17.6572 C.3   394 CCL4   0.3246 
1968 CL      -1.0691   -13.5895    18.9936 Cl    394 CCL4  -0.0812 
1969 CL      -2.6195   -15.9346    18.2853 Cl    394 CCL4  -0.0812 
1970 CL      -3.0581   -13.4252    16.8875 Cl    394 CCL4  -0.0812 
1971 CL       0.4144   -11.7009    11.8485 Cl    395 CCL4  -0.0812 
1972 C       -0.0467   -12.6994    13.2420 C.3   395 CCL4   0.3246 
1973 CL      -1.1225   -14.0017    12.6977 Cl    395 CCL4  -0.0812 
1974 CL      -0.8916   -11.6997    14.4411 Cl    395 CCL4  -0.0812 
1975 CL       1.4104   -13.3957    13.9798 Cl    395 CCL4  -0.0812 
1976 CL      -1.7682    -7.6444    19.9343 Cl    396 CCL4  -0.0812 
1977 C       -2.4667    -8.6455    18.6476 C.3   396 CCL4   0.3246 
1978 CL      -2.5105   -10.3404    19.1709 Cl    396 CCL4  -0.0812 
1979 CL      -1.4664    -8.5178    17.1872 Cl    396 CCL4  -0.0812 
1980 CL      -4.1156    -8.0815    18.3026 Cl    396 CCL4  -0.0812 
1981 CL      -4.1780   -10.2025    15.4145 Cl    397 CCL4  -0.0812 
1982 C       -5.8936   -10.1943    14.9626 C.3   397 CCL4   0.3246 
1983 CL      -6.4993   -11.8624    14.9242 Cl    397 CCL4  -0.0812 
1984 CL      -6.0781    -9.4567    13.3627 Cl    397 CCL4  -0.0812 
1985 CL      -6.8198    -9.2495    16.1438 Cl    397 CCL4  -0.0812 
1986 CL       9.4010   -11.5007     7.6107 Cl    398 CCL4  -0.0812 
1987 C        8.9132    -9.7981     7.5273 C.3   398 CCL4   0.3246 
1988 CL      10.2173    -8.8490     6.7835 Cl    398 CCL4  -0.0812 
1989 CL       8.5974    -9.1918     9.1658 Cl    398 CCL4  -0.0812 
1990 CL       7.4395    -9.6590     6.5482 Cl    398 CCL4  -0.0812 
1991 CL       0.2048    -8.1753    11.1066 Cl    399 CCL4  -0.0812 
1992 C       -0.4950    -7.8176    12.6954 C.3   399 CCL4   0.3246 
1993 CL       0.5810    -8.4177    13.9743 Cl    399 CCL4  -0.0812 
1994 CL      -2.0674    -8.6194    12.8257 Cl    399 CCL4  -0.0812 
1995 CL      -0.7103    -6.0641    12.8691 Cl    399 CCL4  -0.0812 
1996 CL       0.5134    -8.9023     4.6293 Cl    400 CCL4  -0.0812 
1997 C        0.0724    -7.8093     5.9577 C.3   400 CCL4   0.3246 
1998 CL      -0.8944    -8.6905     7.1598 Cl    400 CCL4  -0.0812 
1999 CL      -0.8581    -6.4366     5.3223 Cl    400 CCL4  -0.0812 
2000 CL       1.5447    -7.1989     6.7252 Cl    400 CCL4  -0.0812 
2001 CL      -4.9936   -14.2442     6.2759 Cl    401 CCL4  -0.0812 
2002 C       -4.2929   -12.8377     5.4510 C.3   401 CCL4   0.3246 
2003 CL      -4.6898   -11.3720     6.3608 Cl    401 CCL4  -0.0812 
2004 CL      -4.9621   -12.7109     3.8117 Cl    401 CCL4  -0.0812 
2005 CL      -2.5294   -13.0149     5.3635 Cl    401 CCL4  -0.0812 
2006 CL      -4.2660    -7.4284     6.1269 Cl    402 CCL4  -0.0812 
2007 C       -4.2376    -8.0522     4.4654 C.3   402 CCL4   0.3246 
2008 CL      -3.9251    -6.7229     3.3343 Cl    402 CCL4  -0.0812 
2009 CL      -5.7997    -8.7972     4.0888 Cl    402 CCL4  -0.0812 
2010 CL      -2.9596    -9.2686     4.3060 Cl    402 CCL4  -0.0812 
2011 CL      -7.0118    -9.1745     7.8136 Cl    403 CCL4  -0.0812 
2012 C       -8.3230    -8.4367     8.7482 C.3   403 CCL4   0.3246 
2013 CL      -9.7152    -9.5368     8.7892 Cl    403 CCL4  -0.0812 
2014 CL      -8.7968    -6.9134     7.9794 Cl    403 CCL4  -0.0812 
2015 CL      -7.7643    -8.1166    10.4010 Cl    403 CCL4  -0.0812 
2016 CL      -5.2492   -12.0317     9.6326 Cl    404 CCL4  -0.0812 
2017 C       -3.9057   -11.0616    10.2618 C.3   404 CCL4   0.3246 
2018 CL      -4.3432    -9.3420    10.2155 Cl    404 CCL4  -0.0812 
2019 CL      -2.4546   -11.3196     9.2716 Cl    404 CCL4  -0.0812 
2020 CL      -3.5782   -11.5604    11.9314 Cl    404 CCL4  -0.0812 
2021 CL      -8.3201   -12.8145     7.8644 Cl    405 CCL4  -0.0812 
2022 C       -8.9517   -12.7611     6.2071 C.3   405 CCL4   0.3246 
2023 CL     -10.7139   -12.5563     6.2583 Cl    405 CCL4  -0.0812 
2024 CL      -8.5543   -14.2736     5.3667 Cl    405 CCL4  -0.0812 
2025 CL      -8.2178   -11.4005     5.3375 Cl    405 CCL4  -0.0812 
2026 CL      15.4168   -14.0112    17.7542 Cl    406 CCL4  -0.0812 
2027 C       14.0580   -12.8672    17.7795 C.3   406 CCL4   0.3246 
2028 CL      13.5491   -12.5724    19.4556 Cl    406 CCL4  -0.0812 
2029 CL      12.7001   -13.5538    16.8653 Cl    406 CCL4  -0.0812 
2030 CL      14.5636   -11.3344    17.0400 Cl    406 CCL4  -0.0812 
2031 CL       3.3322   -13.9035     5.0063 Cl    407 CCL4  -0.0812 
2032 C        1.6148   -13.6715     4.6303 C.3   407 CCL4   0.3246 
2033 CL       0.7312   -15.1757     4.9607 Cl    407 CCL4  -0.0812 
2034 CL       1.4477   -13.2436     2.9171 Cl    407 CCL4  -0.0812 
2035 CL       0.9536   -12.3642     5.6329 Cl    407 CCL4  -0.0812 
2036 CL       1.0461   -10.0291    20.0949 Cl    408 CCL4  -0.0812 
2037 C        2.0267   -10.9217    18.9127 C.3   408 CCL4   0.3246 
2038 CL       1.1612   -11.0230    17.3653 Cl    408 CCL4  -0.0812 
2039 CL       2.3201   -12.5563    19.5307 Cl    408 CCL4  -0.0812 
2040 CL       3.5788   -10.0926    18.6657 Cl    408 CCL4  -0.0812 
2041 CL       2.9796    -4.5738    18.8737 Cl    409 CCL4  -0.0812 
2042 C        2.2157    -5.9863    19.6321 C.3   409 CCL4   0.3246 
2043 CL       3.4301    -6.9151    20.5314 Cl    409 CCL4  -0.0812 
2044 CL       1.5040    -7.0148    18.3780 Cl    409 CCL4  -0.0812 
2045 CL       0.9423    -5.4471    20.7420 Cl    409 CCL4  -0.0812 
2046 CL       9.8240    -8.2790    16.7496 Cl    410 CCL4  -0.0812 
2047 C       11.5610    -8.0591    17.0478 C.3   410 CCL4   0.3246 
2048 CL      11.9065    -6.3344    17.2940 Cl    410 CCL4  -0.0812 
2049 CL      12.4834    -8.6545    15.6515 Cl    410 CCL4  -0.0812 
2050 CL      12.0278    -8.9690    18.4998 Cl    410 CCL4  -0.0812 
2051 CL      -8.6842    -9.7263    22.1449 Cl    411 CCL4  -0.0812 
2052 C       -8.9065    -8.7798    20.6586 C.3   411 CCL4   0.3246 
2053 CL      -7.7238    -7.4623    20.6088 Cl    411 CCL4  -0.0812 
2054 CL     -10.5377    -8.0890    20.6208 Cl    411 CCL4  -0.0812 
2055 CL      -8.6794    -9.8324    19.2515 Cl    411 CCL4  -0.0812 
2056 CL      -7.2846   -12.9747    20.6850 Cl    412 CCL4  -0.0812 
2057 C       -5.9718   -13.2135    19.5135 C.3   412 CCL4   0.3246 
2058 CL      -6.3756   -14.5657    18.4334 Cl    412 CCL4  -0.0812 
2059 CL      -4.4644   -13.5739    20.3812 Cl    412 CCL4  -0.0812 
2060 CL      -5.7620   -11.7366    18.5538 Cl    412 CCL4  -0.0812 
2061 CL       7.2252   -13.0448    10.0445 Cl    413 CCL4  -0.0812 
2062 C        8.6026   -13.3270    11.1271 C.3   413 CCL4   0.3246 
2063 CL       9.5025   -11.8154    11.3603 Cl    413 CCL4  -0.0812 
2064 CL       9.6770   -14.5481    10.4147 Cl    413 CCL4  -0.0812 
2065 CL       8.0049   -13.9022    12.6945 Cl    413 CCL4  -0.0812 
2066 CL       7.7872    -6.6920     4.6761 Cl    414 CCL4  -0.0812 
2067 C        8.0336    -5.3511     5.8111 C.3   414 CCL4   0.3246 
2068 CL       9.4986    -4.4642     5.3493 Cl    414 CCL4  -0.0812 
2069 CL       8.2326    -5.9854     7.4572 Cl    414 CCL4  -0.0812 
2070 CL       6.6260    -4.2671     5.7565 Cl    414 CCL4  -0.0812 
2071 CL       7.3337    -6.9631    13.7343 Cl    415 CCL4  -0.0812 
2072 C        9.0043    -6.9039    13.1331 C.3   415 CCL4   0.3246 
2073 CL       9.9599    -5.8299    14.1723 Cl    415 CCL4  -0.0812 
2074 CL       9.0426    -6.2803    11.4705 Cl    415 CCL4  -0.0812 
2075 CL       9.6910    -8.5407    13.1595 Cl    415 CCL4  -0.0812 
2076 CL       8.6266   -15.0928     6.9087 Cl    416 CCL4  -0.0812 
2077 C        7.0674   -14.7921     6.1134 C.3   416 CCL4   0.3246 
2078 CL       5.8903   -16.0112     6.6413 Cl    416 CCL4  -0.0812 
2079 CL       7.2676   -14.8920     4.3539 Cl    416 CCL4  -0.0812 
2080 CL       6.4836   -13.1749     6.5468 Cl    416 CCL4  -0.0812 
2081 CL       3.0756    -6.7554     9.7967 Cl    417 CCL4  -0.0812 
2082 C        4.7250    -6.4405     9.2379 C.3   417 CCL4   0.3246 
2083 CL       5.8729    -7.1259    10.4005 Cl    417 CCL4  -0.0812 
2084 CL       4.9770    -4.6902     9.0995 Cl    417 CCL4  -0.0812 
2085 CL       4.9681    -7.1974     7.6548 Cl    417 CCL4  -0.0812 
2086 CL       5.2844    33.6224    12.3820 Cl    418 CCL4  -0.0812 
2087 C        5.2756    34.7037    13.7905 C.3   418 CCL4   0.3246 
2088 CL       4.9690    33.7540    15.2597 Cl    418 CCL4  -0.0812 
2089 CL       3.9978    35.9209    13.5985 Cl    418 CCL4  -0.0812 
2090 CL       6.8515    35.5133    13.9198 Cl    418 CCL4  -0.0812 
2091 CL       5.7457   -16.0338    17.2557 Cl    419 CCL4  -0.0812 
2092 C        4.9368   -14.5173    16.8123 C.3   419 CCL4   0.3246 
2093 CL       3.1771   -14.7397    16.8805 Cl    419 CCL4  -0.0812 
2094 CL       5.4050   -14.0611    15.1645 Cl    419 CCL4  -0.0812 
2095 CL       5.4243   -13.2380    17.9425 Cl    419 CCL4  -0.0812 
2096 CL       6.5029    -4.8158    19.8255 Cl    420 CCL4  -0.0812 
2097 C        7.4361    -5.9426    18.8176 C.3   420 CCL4   0.3246 
2098 CL       8.8338    -6.5358    19.7409 Cl    420 CCL4  -0.0812 
2099 CL       8.0047    -5.1045    17.3576 Cl    420 CCL4  -0.0812 
2100 CL       6.4073    -7.3135    18.3475 Cl    420 CCL4  -0.0812 
2101 CL       3.4484   -12.7035     8.3469 Cl    421 CCL4  -0.0812 
2102 C        3.6034   -10.9457     8.1767 C.3   421 CCL4   0.3246 
2103 CL       5.0101   -10.3962     9.1055 Cl    421 CCL4  -0.0812 
2104 CL       2.1325   -10.1725     8.7959 Cl    421 CCL4  -0.0812 
2105 CL       3.8221   -10.5139     6.4675 Cl    421 CCL4  -0.0812 
2106 CL      10.3255   -11.6245    15.0838 Cl    422 CCL4  -0.0812 
2107 C        9.1000   -12.0689    16.2896 C.3   422 CCL4   0.3246 
2108 CL       9.6807   -11.6570    17.9166 Cl    422 CCL4  -0.0812 
2109 CL       8.7978   -13.8170    16.2085 Cl    422 CCL4  -0.0812 
2110 CL       7.6006   -11.1783    15.9532 Cl    422 CCL4  -0.0812 
2111 CL       3.4769    -9.5598    12.1563 Cl    423 CCL4  -0.0812 
2112 C        4.5139   -10.7889    12.9020 C.3   423 CCL4   0.3246 
2113 CL       4.1027   -10.9235    14.6248 Cl    423 CCL4  -0.0812 
2114 CL       6.2166   -10.3145    12.7226 Cl    423 CCL4  -0.0812 
2115 CL       4.2521   -12.3518    12.0999 Cl    423 CCL4  -0.0812 
2116 CL       3.7663    -6.1413    13.2289 Cl    424 CCL4  -0.0812 
2117 C        3.5576    -6.0006    14.9831 C.3   424 CCL4   0.3246 
2118 CL       4.7719    -4.8915    15.6511 Cl    424 CCL4  -0.0812 
2119 CL       3.7520    -7.5984    15.7292 Cl    424 CCL4  -0.0812 
2120 CL       1.9360    -5.3692    15.3188 Cl    424 CCL4  -0.0812 
2121 CL      -8.4404     8.0214   -15.2405 Cl    425 CCL4  -0.0812 
2122 C       -8.9051     9.6340   -14.6725 C.3   425 CCL4   0.3246 
2123 CL     -10.6447     9.6610   -14.3173 Cl    425 CCL4  -0.0812 
2124 CL      -8.5303    10.8174   -15.9377 Cl    425 CCL4  -0.0812 
2125 CL      -7.9987    10.0336   -13.2006 Cl    425 CCL4  -0.0812 
2126 CL       3.1603     7.2011   -16.7478 Cl    426 CCL4  -0.0812 
2127 C        3.6711     7.0348   -15.0545 C.3   426 CCL4   0.3246 
2128 CL       2.8151     5.6750   -14.3042 Cl    426 CCL4  -0.0812 
2129 CL       3.2860     8.5246   -14.1747 Cl    426 CCL4  -0.0812 
2130 CL       5.4207     6.7410   -14.9819 Cl    426 CCL4  -0.0812 
2131 CL      -1.7150    -1.5503   -11.8649 Cl    427 CCL4  -0.0812 
2132 C       -0.7345    -0.8907   -13.1870 C.3   427 CCL4   0.3246 
2133 CL      -0.8436    -1.9514   -14.6068 Cl    427 CCL4  -0.0812 
2134 CL       0.9563    -0.7706   -12.6587 Cl    427 CCL4  -0.0812 
2135 CL      -1.3438     0.7180   -13.6131 Cl    427 CCL4  -0.0812 
2136 CL      -4.4416     9.5599   -11.8855 Cl    428 CCL4  -0.0812 
2137 C       -4.9265     7.8817   -11.5744 C.3   428 CCL4   0.3246 
2138 CL      -5.8782     7.8052   -10.0828 Cl    428 CCL4  -0.0812 
2139 CL      -3.4859     6.8595   -11.4049 Cl    428 CCL4  -0.0812 
2140 CL      -5.9120     7.2992   -12.9239 Cl    428 CCL4  -0.0812 
2141 CL      -1.9515    -2.4575     2.8105 Cl    429 CCL4  -0.0812 
2142 C       -1.4435    -1.5940     4.2759 C.3   429 CCL4   0.3246 
2143 CL      -0.7371    -2.7451     5.4263 Cl    429 CCL4  -0.0812 
2144 CL      -2.8513    -0.8007     5.0114 Cl    429 CCL4  -0.0812 
2145 CL      -0.2300    -0.3712     3.8522 Cl    429 CCL4  -0.0812 
2146 CL      -1.5141     2.4970     2.0474 Cl    430 CCL4  -0.0812 
2147 C       -2.0157     3.5991     3.3480 C.3   430 CCL4   0.3246 
2148 CL      -3.4277     4.5373     2.8150 Cl    430 CCL4  -0.0812 
2149 CL      -0.6783     4.6951     3.7432 Cl    430 CCL4  -0.0812 
2150 CL      -2.4415     2.6588     4.7897 Cl    430 CCL4  -0.0812 
2151 CL      -5.4574    16.2129   -11.3313 Cl    431 CCL4  -0.0812 
2152 C       -4.9470    17.9092   -11.3361 C.3   431 CCL4   0.3246 
2153 CL      -6.2095    18.9121   -10.5894 Cl    431 CCL4  -0.0812 
2154 CL      -4.6876    18.4306   -13.0094 Cl    431 CCL4  -0.0812 
2155 CL      -3.4318    18.0735   -10.4265 Cl    431 CCL4  -0.0812 
2156 CL       0.0823     6.0544   -11.9355 Cl    432 CCL4  -0.0812 
2157 C       -0.4847     4.3776   -12.0404 C.3   432 CCL4   0.3246 
2158 CL       0.8832     3.3168   -12.4244 Cl    432 CCL4  -0.0812 
2159 CL      -1.7056     4.2445   -13.3193 Cl    432 CCL4  -0.0812 
2160 CL      -1.1963     3.8959   -10.4872 Cl    432 CCL4  -0.0812 
2161 CL      -5.4971    -0.2020   -16.8618 Cl    433 CCL4  -0.0812 
2162 C       -6.9816    -1.1637   -16.9950 C.3   433 CCL4   0.3246 
2163 CL      -6.9169    -2.1280   -18.4834 Cl    433 CCL4  -0.0812 
2164 CL      -8.3911    -0.0904   -17.0531 Cl    433 CCL4  -0.0812 
2165 CL      -7.1249    -2.2298   -15.5835 Cl    433 CCL4  -0.0812 
2166 CL      -0.9205     0.4289    -7.9164 Cl    434 CCL4  -0.0812 
2167 C       -0.6522    -1.3264    -7.9322 C.3   434 CCL4   0.3246 
2168 CL       0.5891    -1.7339    -9.1359 Cl    434 CCL4  -0.0812 
2169 CL      -2.1781    -2.1326    -8.3421 Cl    434 CCL4  -0.0812 
2170 CL      -0.1029    -1.8682    -6.3334 Cl    434 CCL4  -0.0812 
2171 CL      -4.8258    -0.1474   -13.2317 Cl    435 CCL4  -0.0812 
2172 C       -5.1394     0.4271   -11.5827 C.3   435 CCL4   0.3246 
2173 CL      -3.8949     1.6034   -11.1165 Cl    435 CCL4  -0.0812 
2174 CL      -5.1038    -0.9381   -10.4497 Cl    435 CCL4  -0.0812 
2175 CL      -6.7377     1.1924   -11.5369 Cl    435 CCL4  -0.0812 
2176 CL       2.2802    19.1275   -17.4843 Cl    436 CCL4  -0.0812 
2177 C        1.1011    18.4996   -16.3146 C.3   436 CCL4   0.3246 
2178 CL       0.4496    16.9503   -16.8905 Cl    436 CCL4  -0.0812 
2179 CL      -0.2246    19.6652   -16.1427 Cl    436 CCL4  -0.0812 
2180 CL       1.8944    18.2615   -14.7428 Cl    436 CCL4  -0.0812 
2181 CL      -5.6650    15.8396    23.4991 Cl    437 CCL4  -0.0812 
2182 C       -4.3535    16.5240    22.5141 C.3   437 CCL4   0.3246 
2183 CL      -3.3068    17.5396    23.5275 Cl    437 CCL4  -0.0812 
2184 CL      -5.0484    17.5178    21.2148 Cl    437 CCL4  -0.0812 
2185 CL      -3.3932    15.2015    21.8159 Cl    437 CCL4  -0.0812 
2186 CL      -9.5301     6.0215     3.8808 Cl    438 CCL4  -0.0812 
2187 C       -8.6375     5.8742     2.3546 C.3   438 CCL4   0.3246 
2188 CL      -7.3291     7.0746     2.3128 Cl    438 CCL4  -0.0812 
2189 CL      -9.7508     6.1448     0.9986 Cl    438 CCL4  -0.0812 
2190 CL      -7.9531     4.2401     2.2319 Cl    438 CCL4  -0.0812 
2191 CL       1.9678     3.7425    22.8634 Cl    439 CCL4  -0.0812 
2192 C        1.0889     2.2436    23.2084 C.3   439 CCL4   0.3246 
2193 CL      -0.6264     2.6207    23.4592 Cl    439 CCL4  -0.0812 
2194 CL       1.7576     1.4967    24.6710 Cl    439 CCL4  -0.0812 
2195 CL       1.2615     1.1221    21.8428 Cl    439 CCL4  -0.0812 
2196 CL      -2.0937     8.4015    22.6340 Cl    440 CCL4  -0.0812 
2197 C       -2.0179     6.7783    23.3530 C.3   440 CCL4   0.3246 
2198 CL      -3.2470     6.6417    24.6245 Cl    440 CCL4  -0.0812 
2199 CL      -0.4043     6.5058    24.0444 Cl    440 CCL4  -0.0812 
2200 CL      -2.3319     5.5564    22.1077 Cl    440 CCL4  -0.0812 
2201 CL      -4.2675     3.0245   -15.7929 Cl    441 CCL4  -0.0812 
2202 C       -5.7216     3.6120   -14.9621 C.3   441 CCL4   0.3246 
2203 CL      -6.3445     5.0530   -15.7911 Cl    441 CCL4  -0.0812 
2204 CL      -5.3161     4.0065   -13.2822 Cl    441 CCL4  -0.0812 
2205 CL      -6.9653     2.3529   -14.9758 Cl    441 CCL4  -0.0812 
2206 CL      -9.3612    18.7811   -13.2033 Cl    442 CCL4  -0.0812 
2207 C       -9.4293    17.0665   -12.7606 C.3   442 CCL4   0.3246 
2208 CL     -11.0413    16.4205   -13.1359 Cl    442 CCL4  -0.0812 
2209 CL      -9.1191    16.8871   -11.0205 Cl    442 CCL4  -0.0812 
2210 CL      -8.1932    16.1892   -13.6863 Cl    442 CCL4  -0.0812 
2211 CL      -3.5479     1.6431    -4.0370 Cl    443 CCL4  -0.0812 
2212 C       -4.1163    -0.0055    -3.7276 C.3   443 CCL4   0.3246 
2213 CL      -5.6881    -0.2398    -4.5108 Cl    443 CCL4  -0.0812 
2214 CL      -4.2819    -0.2550    -1.9793 Cl    443 CCL4  -0.0812 
2215 CL      -2.9478    -1.1650    -4.3854 Cl    443 CCL4  -0.0812 
2216 CL       1.1286    -0.2187     0.5961 Cl    444 CCL4  -0.0812 
2217 C        2.2189    -1.5713     0.9404 C.3   444 CCL4   0.3246 
2218 CL       3.3039    -1.1302     2.2770 Cl    444 CCL4  -0.0812 
2219 CL       3.1764    -1.9489    -0.5070 Cl    444 CCL4  -0.0812 
2220 CL       1.2523    -2.9853     1.3966 Cl    444 CCL4  -0.0812 
2221 CL       0.5400     7.7272    -1.4671 Cl    445 CCL4  -0.0812 
2222 C        1.4309     6.4983    -0.5506 C.3   445 CCL4   0.3246 
2223 CL       0.2699     5.4463     0.2864 Cl    445 CCL4  -0.0812 
2224 CL       2.4809     7.2925     0.6403 Cl    445 CCL4  -0.0812 
2225 CL       2.4261     5.5349    -1.6648 Cl    445 CCL4  -0.0812 
2226 CL      -9.0954    -0.9480    -2.0999 Cl    446 CCL4  -0.0812 
2227 C       -8.3323    -2.5531    -2.1104 C.3   446 CCL4   0.3246 
2228 CL      -9.5275    -3.7902    -1.6767 Cl    446 CCL4  -0.0812 
2229 CL      -7.0084    -2.5699    -0.9315 Cl    446 CCL4  -0.0812 
2230 CL      -7.6942    -2.9088    -3.7268 Cl    446 CCL4  -0.0812 
2231 CL      -0.1189     3.9748    -7.1155 Cl    447 CCL4  -0.0812 
2232 C        1.2445     4.9828    -6.5951 C.3   447 CCL4   0.3246 
2233 CL       2.2334     5.4106    -8.0050 Cl    447 CCL4  -0.0812 
2234 CL       2.2311     4.0879    -5.4197 Cl    447 CCL4  -0.0812 
2235 CL       0.6250     6.4641    -5.8421 Cl    447 CCL4  -0.0812 
2236 CL      -0.9963     7.8616    -8.9128 Cl    448 CCL4  -0.0812 
2237 C       -2.1985     8.6535    -7.8725 C.3   448 CCL4   0.3246 
2238 CL      -1.4087     9.2610    -6.4042 Cl    448 CCL4  -0.0812 
2239 CL      -3.4555     7.4842    -7.4276 Cl    448 CCL4  -0.0812 
2240 CL      -2.9380    10.0102    -8.7432 Cl    448 CCL4  -0.0812 
2241 CL       4.1318    -0.0939    -9.1553 Cl    449 CCL4  -0.0812 
2242 C        3.2764     1.2597    -8.3928 C.3   449 CCL4   0.3246 
2243 CL       2.0168     1.8554    -9.4888 Cl    449 CCL4  -0.0812 
2244 CL       4.4245     2.5643    -8.0460 Cl    449 CCL4  -0.0812 
2245 CL       2.5304     0.7159    -6.8799 Cl    449 CCL4  -0.0812 
2246 CL      -3.6623    16.7168    -2.3689 Cl    450 CCL4  -0.0812 
2247 C       -3.6125    18.3923    -1.7910 C.3   450 CCL4   0.3246 
2248 CL      -3.8788    18.4237    -0.0358 Cl    450 CCL4  -0.0812 
2249 CL      -4.8844    19.3263    -2.5912 Cl    450 CCL4  -0.0812 
2250 CL      -2.0362    19.1075    -2.1776 Cl    450 CCL4  -0.0812 
2251 CL       1.9235     1.7116    -2.4446 Cl    451 CCL4  -0.0812 
2252 C        0.3473     1.0100    -2.8699 C.3   451 CCL4   0.3246 
2253 CL      -0.1087     1.5310    -4.5017 Cl    451 CCL4  -0.0812 
2254 CL      -0.8799     1.5532    -1.7043 Cl    451 CCL4  -0.0812 
2255 CL       0.4505    -0.7607    -2.8374 Cl    451 CCL4  -0.0812 
2256 CL       4.8536     9.8087    -5.4776 Cl    452 CCL4  -0.0812 
2257 C        4.0847     8.6409    -4.3809 C.3   452 CCL4   0.3246 
2258 CL       2.3963     9.1007    -4.0970 Cl    452 CCL4  -0.0812 
2259 CL       4.9418     8.6192    -2.8289 Cl    452 CCL4  -0.0812 
2260 CL       4.1390     7.0277    -5.1098 Cl    452 CCL4  -0.0812 
2261 CL      -3.6182     4.8565    -2.2572 Cl    453 CCL4  -0.0812 
2262 C       -2.4676     5.4784    -3.4584 C.3   453 CCL4   0.3246 
2263 CL      -2.9565     4.9606    -5.0820 Cl    453 CCL4  -0.0812 
2264 CL      -0.8517     4.8369    -3.1075 Cl    453 CCL4  -0.0812 
2265 CL      -2.4390     7.2537    -3.3904 Cl    453 CCL4  -0.0812 
2266 CL      -4.7895     4.1234    -8.4946 Cl    454 CCL4  -0.0812 
2267 C       -5.6374     2.8484    -7.5910 C.3   454 CCL4   0.3246 
2268 CL      -7.1722     2.4706    -8.3914 Cl    454 CCL4  -0.0812 
2269 CL      -5.9775     3.4055    -5.9421 Cl    454 CCL4  -0.0812 
2270 CL      -4.6246     1.3897    -7.5335 Cl    454 CCL4  -0.0812 
2271 CL      -4.9132    -0.7255     1.5424 Cl    455 CCL4  -0.0812 
2272 C       -5.7667     0.8187     1.7390 C.3   455 CCL4   0.3246 
2273 CL      -5.6955     1.3104     3.4432 Cl    455 CCL4  -0.0812 
2274 CL      -7.4658     0.6308     1.2538 Cl    455 CCL4  -0.0812 
2275 CL      -5.0015     2.0625     0.7291 Cl    455 CCL4  -0.0812 
2276 CL       0.5148    10.9974   -14.3257 Cl    456 CCL4  -0.0812 
2277 C       -0.3415    10.2523   -12.9610 C.3   456 CCL4   0.3246 
2278 CL      -1.3812     8.9535   -13.5661 Cl    456 CCL4  -0.0812 
2279 CL      -1.3419    11.4668   -12.1408 Cl    456 CCL4  -0.0812 
2280 CL       0.8341     9.5818   -11.8140 Cl    456 CCL4  -0.0812 
2281 CL      -1.3105    15.5604    -5.2657 Cl    457 CCL4  -0.0812 
2282 C       -1.2648    14.7121    -6.8256 C.3   457 CCL4   0.3246 
2283 CL      -1.7846    13.0306    -6.6008 Cl    457 CCL4  -0.0812 
2284 CL       0.3904    14.7524    -7.4663 Cl    457 CCL4  -0.0812 
2285 CL      -2.3596    15.5032    -7.9760 Cl    457 CCL4  -0.0812 
2286 CL      -4.5375    13.0001   -10.1933 Cl    458 CCL4  -0.0812 
2287 C       -5.8911    12.6633    -9.0926 C.3   458 CCL4   0.3246 
2288 CL      -6.6662    11.1393    -9.5584 Cl    458 CCL4  -0.0812 
2289 CL      -7.0889    13.9647    -9.1928 Cl    458 CCL4  -0.0812 
2290 CL      -5.2870    12.5473    -7.4269 Cl    458 CCL4  -0.0812 
2291 CL      -0.3711    14.5000   -14.1174 Cl    459 CCL4  -0.0812 
2292 C       -1.5783    15.4230   -13.2004 C.3   459 CCL4   0.3246 
2293 CL      -1.5631    14.9175   -11.4989 Cl    459 CCL4  -0.0812 
2294 CL      -3.1873    15.1304   -13.8829 Cl    459 CCL4  -0.0812 
2295 CL      -1.1976    17.1508   -13.3059 Cl    459 CCL4  -0.0812 
2296 CL      -6.2248    19.4139    -6.6224 Cl    460 CCL4  -0.0812 
2297 C       -5.5718    17.8089    -6.2406 C.3   460 CCL4   0.3246 
2298 CL      -6.5161    17.0702    -4.9309 Cl    460 CCL4  -0.0812 
2299 CL      -3.8819    17.9674    -5.7340 Cl    460 CCL4  -0.0812 
2300 CL      -5.6534    16.7814    -7.6816 Cl    460 CCL4  -0.0812 
2301 CL      -4.9553     9.8628   -15.4042 Cl    461 CCL4  -0.0812 
2302 C       -4.6649    11.6084   -15.5344 C.3   461 CCL4   0.3246 
2303 CL      -5.3109    12.2004   -17.0780 Cl    461 CCL4  -0.0812 
2304 CL      -2.9175    11.9178   -15.4722 Cl    461 CCL4  -0.0812 
2305 CL      -5.4734    12.4457   -14.1909 Cl    461 CCL4  -0.0812 
2306 CL      14.5896     8.5036    -8.3189 Cl    462 CCL4  -0.0812 
2307 C       13.1310     8.8526    -7.3665 C.3   462 CCL4   0.3246 
2308 CL      13.5124     8.7593    -5.6352 Cl    462 CCL4  -0.0812 
2309 CL      11.8719     7.6630    -7.7478 Cl    462 CCL4  -0.0812 
2310 CL      12.5445    10.4808    -7.7635 Cl    462 CCL4  -0.0812 
2311 CL       1.6329    15.1039    -0.2759 Cl    463 CCL4  -0.0812 
2312 C       -0.1211    15.2105    -0.0130 C.3   463 CCL4   0.3246 
2313 CL      -0.5632    14.3056     1.4509 Cl    463 CCL4  -0.0812 
2314 CL      -0.9820    14.5417    -1.4139 Cl    463 CCL4  -0.0812 
2315 CL      -0.5819    16.9100     0.1940 Cl    463 CCL4  -0.0812 
2316 CL       1.3867    11.5847    -6.1815 Cl    464 CCL4  -0.0812 
2317 C        1.7829    11.1217    -7.8451 C.3   464 CCL4   0.3246 
2318 CL       0.4022    11.4707    -8.9024 Cl    464 CCL4  -0.0812 
2319 CL       2.1421     9.3835    -7.9002 Cl    464 CCL4  -0.0812 
2320 CL       3.1948    12.0496    -8.3898 Cl    464 CCL4  -0.0812 
2321 CL       4.2945    13.8215    -5.5261 Cl    465 CCL4  -0.0812 
2322 C        3.6837    13.8307    -3.8591 C.3   465 CCL4   0.3246 
2323 CL       1.9339    14.1346    -3.8601 Cl    465 CCL4  -0.0812 
2324 CL       4.4997    15.1066    -2.9419 Cl    465 CCL4  -0.0812 
2325 CL       4.0232    12.2631    -3.1018 Cl    465 CCL4  -0.0812 
2326 CL      -3.7769    13.2814    -3.6255 Cl    466 CCL4  -0.0812 
2327 C       -3.3484    11.6043    -3.2285 C.3   466 CCL4   0.3246 
2328 CL      -4.1333    10.5096    -4.3837 Cl    466 CCL4  -0.0812 
2329 CL      -3.9095    11.2245    -1.5869 Cl    466 CCL4  -0.0812 
2330 CL      -1.5863    11.3935    -3.3185 Cl    466 CCL4  -0.0812 
2331 CL       2.1427    19.8561    -5.3716 Cl    467 CCL4  -0.0812 
2332 C        2.4194    18.3065    -4.5591 C.3   467 CCL4   0.3246 
2333 CL       3.8767    18.4303    -3.5602 Cl    467 CCL4  -0.0812 
2334 CL       2.6398    17.0435    -5.7811 Cl    467 CCL4  -0.0812 
2335 CL       1.0299    17.9004    -3.5314 Cl    467 CCL4  -0.0812 
2336 CL      -6.4971    14.5184    -1.5385 Cl    468 CCL4  -0.0812 
2337 C       -6.0693    14.2483     0.1640 C.3   468 CCL4   0.3246 
2338 CL      -6.5558    12.6076     0.6351 Cl    468 CCL4  -0.0812 
2339 CL      -6.9136    15.4316     1.1832 Cl    468 CCL4  -0.0812 
2340 CL      -4.3151    14.4313     0.3808 Cl    468 CCL4  -0.0812 
2341 CL       8.0421    13.8266    -5.0605 Cl    469 CCL4  -0.0812 
2342 C        9.7421    14.3243    -4.9364 C.3   469 CCL4   0.3246 
2343 CL       9.8514    16.0962    -4.9787 Cl    469 CCL4  -0.0812 
2344 CL      10.6599    13.6497    -6.2988 Cl    469 CCL4  -0.0812 
2345 CL      10.4142    13.7281    -3.4040 Cl    469 CCL4  -0.0812 
2346 CL      -9.1850    11.4149    -3.8785 Cl    470 CCL4  -0.0812 
2347 C       -9.1511    12.6163    -5.1876 C.3   470 CCL4   0.3246 
2348 CL      -7.7257    13.6549    -4.9855 Cl    470 CCL4  -0.0812 
2349 CL     -10.6230    13.6072    -5.1285 Cl    470 CCL4  -0.0812 
2350 CL      -9.0677    11.7922    -6.7585 Cl    470 CCL4  -0.0812 
2351 CL      -8.8170     7.9364    -5.2175 Cl    471 CCL4  -0.0812 
2352 C       -7.2022     7.6672    -5.9009 C.3   471 CCL4   0.3246 
2353 CL      -7.3086     6.4747    -7.2081 Cl    471 CCL4  -0.0812 
2354 CL      -6.1099     7.0666    -4.6338 Cl    471 CCL4  -0.0812 
2355 CL      -6.5776     9.1944    -6.5507 Cl    471 CCL4  -0.0812 
2356 CL       4.4576    12.6416     0.4232 Cl    472 CCL4  -0.0812 
2357 C        5.3477    11.3899     1.3099 C.3   472 CCL4   0.3246 
2358 CL       6.6381    12.1564     2.2573 Cl    472 CCL4  -0.0812 
2359 CL       6.0621    10.2461     0.1567 Cl    472 CCL4  -0.0812 
2360 CL       4.2393    10.5240     2.3971 Cl    472 CCL4  -0.0812 
2361 CL       6.8805    10.0454   -14.6887 Cl    473 CCL4  -0.0812 
2362 C        7.8837    11.1409   -13.7170 C.3   473 CCL4   0.3246 
2363 CL       7.7050    12.8004   -14.3186 Cl    473 CCL4  -0.0812 
2364 CL       9.5861    10.6495   -13.8327 Cl    473 CCL4  -0.0812 
2365 CL       7.3620    11.0714   -12.0242 Cl    473 CCL4  -0.0812 
2366 CL       7.2235     4.1465   -12.7057 Cl    474 CCL4  -0.0812 
2367 C        6.2816     3.5965   -11.3034 C.3   474 CCL4   0.3246 
2368 CL       6.5547     4.6922    -9.9378 Cl    474 CCL4  -0.0812 
2369 CL       6.7977     1.9670   -10.8403 Cl    474 CCL4  -0.0812 
2370 CL       4.5552     3.5717   -11.7169 Cl    474 CCL4  -0.0812 
2371 CL      11.1113     4.2207     2.4522 Cl    475 CCL4  -0.0812 
2372 C       11.7773     3.6788     4.0062 C.3   475 CCL4   0.3246 
2373 CL      10.5523     3.8646     5.2759 Cl    475 CCL4  -0.0812 
2374 CL      13.1920     4.6550     4.4336 Cl    475 CCL4  -0.0812 
2375 CL      12.2606     1.9773     3.8686 Cl    475 CCL4  -0.0812 
2376 CL       9.9485     1.3823   -12.6234 Cl    476 CCL4  -0.0812 
2377 C       10.9817     2.7094   -12.0540 C.3   476 CCL4   0.3246 
2378 CL      10.1936     3.5388   -10.6946 Cl    476 CCL4  -0.0812 
2379 CL      11.2422     3.8616   -13.3809 Cl    476 CCL4  -0.0812 
2380 CL      12.5431     2.0525   -11.5187 Cl    476 CCL4  -0.0812 
2381 CL      11.5619     9.1846   -11.1392 Cl    477 CCL4  -0.0812 
2382 C       11.4413     7.5810   -11.8939 C.3   477 CCL4   0.3246 
2383 CL       9.7794     6.9744   -11.7385 Cl    477 CCL4  -0.0812 
2384 CL      12.5630     6.4621   -11.0906 Cl    477 CCL4  -0.0812 
2385 CL      11.8597     7.7026   -13.6145 Cl    477 CCL4  -0.0812 
2386 CL       5.4740     4.6175   -17.8788 Cl    478 CCL4  -0.0812 
2387 C        5.7549     3.0518   -17.0903 C.3   478 CCL4   0.3246 
2388 CL       4.9288     1.7817   -18.0085 Cl    478 CCL4  -0.0812 
2389 CL       5.1126     3.0890   -15.4356 Cl    478 CCL4  -0.0812 
2390 CL       7.4981     2.7138   -17.0440 Cl    478 CCL4  -0.0812 
2391 CL       6.9566     0.2156   -14.2772 Cl    479 CCL4  -0.0812 
2392 C        6.2055    -1.0189   -13.2463 C.3   479 CCL4   0.3246 
2393 CL       7.1970    -1.2749   -11.7944 Cl    479 CCL4  -0.0812 
2394 CL       6.0852    -2.5445   -14.1435 Cl    479 CCL4  -0.0812 
2395 CL       4.5815    -0.4727   -12.7785 Cl    479 CCL4  -0.0812 
2396 CL       7.1733    14.5026    -8.4732 Cl    480 CCL4  -0.0812 
2397 C        8.1106    15.4495    -9.6435 C.3   480 CCL4   0.3246 
2398 CL       9.6694    15.9037    -8.9270 Cl    480 CCL4  -0.0812 
2399 CL       7.2002    16.9100   -10.0638 Cl    480 CCL4  -0.0812 
2400 CL       8.3973    14.4874   -11.1073 Cl    480 CCL4  -0.0812 
2401 CL       5.2596    17.3439   -16.0540 Cl    481 CCL4  -0.0812 
2402 C        6.8547    17.0052   -15.3530 C.3   481 CCL4   0.3246 
2403 CL       6.6519    16.3405   -13.7197 Cl    481 CCL4  -0.0812 
2404 CL       7.7931    18.5077   -15.2708 Cl    481 CCL4  -0.0812 
2405 CL       7.7186    15.8355   -16.3717 Cl    481 CCL4  -0.0812 
2406 CL      11.6718    -4.0320   -14.0761 Cl    482 CCL4  -0.0812 
2407 C       11.1412    -2.3727   -13.7270 C.3   482 CCL4   0.3246 
2408 CL      10.6629    -2.2415   -12.0220 Cl    482 CCL4  -0.0812 
2409 CL       9.7553    -1.9736   -14.7624 Cl    482 CCL4  -0.0812 
2410 CL      12.4721    -1.2413   -14.0518 Cl    482 CCL4  -0.0812 
2411 CL       9.1644     5.0140    -4.7398 Cl    483 CCL4  -0.0812 
2412 C        8.1348     5.6914    -6.0187 C.3   483 CCL4   0.3246 
2413 CL       6.6311     4.7570    -6.1294 Cl    483 CCL4  -0.0812 
2414 CL       8.9913     5.6113    -7.5708 Cl    483 CCL4  -0.0812 
2415 CL       7.7512     7.3820    -5.6363 Cl    483 CCL4  -0.0812 
2416 CL       5.2453     7.8072    -8.8139 Cl    484 CCL4  -0.0812 
2417 C        4.7902     8.0586   -10.5143 C.3   484 CCL4   0.3246 
2418 CL       3.4565     6.9676   -10.9335 Cl    484 CCL4  -0.0812 
2419 CL       6.1789     7.7236   -11.5675 Cl    484 CCL4  -0.0812 
2420 CL       4.2754     9.7381   -10.7553 Cl    484 CCL4  -0.0812 
2421 CL       7.8776     1.6058    -7.2492 Cl    485 CCL4  -0.0812 
2422 C        9.5422     1.0236    -7.4515 C.3   485 CCL4   0.3246 
2423 CL       9.7337     0.3301    -9.0756 Cl    485 CCL4  -0.0812 
2424 CL       9.8887    -0.2200    -6.2319 Cl    485 CCL4  -0.0812 
2425 CL      10.6722     2.3781    -7.2467 Cl    485 CCL4  -0.0812 
2426 CL      -6.6476     2.6560    -2.5114 Cl    486 CCL4  -0.0812 
2427 C       -7.8711     3.8753    -2.1130 C.3   486 CCL4   0.3246 
2428 CL      -8.6435     4.4649    -3.5996 Cl    486 CCL4  -0.0812 
2429 CL      -9.0938     3.1360    -1.0599 Cl    486 CCL4  -0.0812 
2430 CL      -7.1013     5.2346    -1.2686 Cl    486 CCL4  -0.0812 
2431 CL       9.0926     9.4956     2.5369 Cl    487 CCL4  -0.0812 
2432 C       10.5532     8.5323     2.2408 C.3   487 CCL4   0.3246 
2433 CL      11.9055     9.6165     1.8511 Cl    487 CCL4  -0.0812 
2434 CL      10.2652     7.4263     0.8835 Cl    487 CCL4  -0.0812 
2435 CL      10.9475     7.5898     3.6921 Cl    487 CCL4  -0.0812 
2436 CL       5.4851    19.3792    -6.9278 Cl    488 CCL4  -0.0812 
2437 C        6.8419    18.5888    -6.1043 C.3   488 CCL4   0.3246 
2438 CL       7.2040    19.4322    -4.5848 Cl    488 CCL4  -0.0812 
2439 CL       8.2712    18.6366    -7.1511 Cl    488 CCL4  -0.0812 
2440 CL       6.4091    16.9039    -5.7598 Cl    488 CCL4  -0.0812 
2441 CL       6.0036    15.7609     0.1941 Cl    489 CCL4  -0.0812 
2442 C        7.5197    15.3717    -0.6420 C.3   489 CCL4   0.3246 
2443 CL       7.7808    16.5326    -1.9619 Cl    489 CCL4  -0.0812 
2444 CL       7.4219    13.7287    -1.3069 Cl    489 CCL4  -0.0812 
2445 CL       8.8693    15.4594     0.5102 Cl    489 CCL4  -0.0812 
2446 CL       8.1345     4.6037    -0.3939 Cl    490 CCL4  -0.0812 
2447 C        6.4489     5.0616    -0.7183 C.3   490 CCL4   0.3246 
2448 CL       5.3712     3.7545    -0.1948 Cl    490 CCL4  -0.0812 
2449 CL       6.2285     5.3326    -2.4594 Cl    490 CCL4  -0.0812 
2450 CL       6.0560     6.5459     0.1755 Cl    490 CCL4  -0.0812 
2451 CL       5.4075     0.5892    -1.9391 Cl    491 CCL4  -0.0812 
2452 C        6.2991     0.9590    -3.4280 C.3   491 CCL4   0.3246 
2453 CL       6.8722    -0.5500    -4.1702 Cl    491 CCL4  -0.0812 
2454 CL       7.6931     1.9895    -3.0456 Cl    491 CCL4  -0.0812 
2455 CL       5.2242     1.8102    -4.5550 Cl    491 CCL4  -0.0812 
2456 CL       6.6510     0.3838     1.5053 Cl    492 CCL4  -0.0812 
2457 C        7.5647    -1.1314     1.3562 C.3   492 CCL4   0.3246 
2458 CL       9.2987    -0.7662     1.2343 Cl    492 CCL4  -0.0812 
2459 CL       7.0447    -1.9935    -0.1045 Cl    492 CCL4  -0.0812 
2460 CL       7.2650    -2.1491     2.7820 Cl    492 CCL4  -0.0812 
2461 CL      10.5523     9.8196    -3.5200 Cl    493 CCL4  -0.0812 
2462 C        9.1162     9.8605    -2.4751 C.3   493 CCL4   0.3246 
2463 CL       7.8058    10.7369    -3.2909 Cl    493 CCL4  -0.0812 
2464 CL       9.5203    10.6829    -0.9535 Cl    493 CCL4  -0.0812 
2465 CL       8.5858     8.2004    -2.1348 Cl    493 CCL4  -0.0812 
2466 CL       4.6102    13.1692     5.1616 Cl    494 CCL4  -0.0812 
2467 C        3.7357    14.4935     4.3646 C.3   494 CCL4   0.3246 
2468 CL       4.8968    15.6206     3.6325 Cl    494 CCL4  -0.0812 
2469 CL       2.7527    15.3518     5.5597 Cl    494 CCL4  -0.0812 
2470 CL       2.6661    13.8348     3.1126 Cl    494 CCL4  -0.0812 
2471 CL       4.0494    10.7134    23.0939 Cl    495 CCL4  -0.0812 
2472 C        3.8312    12.3995    22.5904 C.3   495 CCL4   0.3246 
2473 CL       5.0156    13.4317    23.4147 Cl    495 CCL4  -0.0812 
2474 CL       2.1869    12.9366    22.9972 Cl    495 CCL4  -0.0812 
2475 CL       4.0817    12.5124    20.8417 Cl    495 CCL4  -0.0812 
2476 CL       9.4910    11.6921    -9.2341 Cl    496 CCL4  -0.0812 
2477 C        8.4828    10.5538    -8.3182 C.3   496 CCL4   0.3246 
2478 CL       9.0191    10.5240    -6.6306 Cl    496 CCL4  -0.0812 
2479 CL       8.6407     8.9311    -9.0129 Cl    496 CCL4  -0.0812 
2480 CL       6.7837    11.0612    -8.3873 Cl    496 CCL4  -0.0812 
2481 CL       3.2561    14.8361   -13.7084 Cl    497 CCL4  -0.0812 
2482 C        3.5021    13.4858   -12.5812 C.3   497 CCL4   0.3246 
2483 CL       2.0244    13.2317   -11.6316 Cl    497 CCL4  -0.0812 
2484 CL       4.8522    13.8549   -11.4905 Cl    497 CCL4  -0.0812 
2485 CL       3.8792    12.0147   -13.4955 Cl    497 CCL4  -0.0812 
2486 CL       3.8121    17.5973   -11.4433 Cl    498 CCL4  -0.0812 
2487 C        2.9069    17.2652    -9.9533 C.3   498 CCL4   0.3246 
2488 CL       2.6888    18.7729    -9.0413 Cl    498 CCL4  -0.0812 
2489 CL       3.8017    16.0955    -8.9605 Cl    498 CCL4  -0.0812 
2490 CL       1.3220    16.5910   -10.3749 Cl    498 CCL4  -0.0812 
2491 CL      -9.0558     8.0592    11.7790 Cl    499 CCL4  -0.0812 
2492 C       -9.7558     9.5983    12.3124 C.3   499 CCL4   0.3246 
2493 CL     -11.1842     9.9654    11.3271 Cl    499 CCL4  -0.0812 
2494 CL      -8.5495    10.8849    12.1206 Cl    499 CCL4  -0.0812 
2495 CL     -10.2348     9.4798    14.0171 Cl    499 CCL4  -0.0812 
2496 CL       3.4758     4.9377     8.4796 Cl    500 CCL4  -0.0812 
2497 C        3.2164     4.8671    10.2345 C.3   500 CCL4   0.3246 
2498 CL       3.5690     3.2291    10.8161 Cl    500 CCL4  -0.0812 
2499 CL       1.5257     5.2590    10.5969 Cl    500 CCL4  -0.0812 
2500 CL       4.2835     6.0353    11.0432 Cl    500 CCL4  -0.0812 
2501 CL      -1.1400    -2.3817    13.1423 Cl    501 CCL4  -0.0812 
2502 C       -0.9834    -0.6278    12.9306 C.3   501 CCL4   0.3246 
2503 CL      -1.9410    -0.1124    11.5288 Cl    501 CCL4  -0.0812 
2504 CL       0.7250    -0.2182    12.6771 Cl    501 CCL4  -0.0812 
2505 CL      -1.5829     0.2027    14.3765 Cl    501 CCL4  -0.0812 
2506 CL      -4.7091     8.8062    15.5076 Cl    502 CCL4  -0.0812 
2507 C       -5.0381     7.1430    14.9871 C.3   502 CCL4   0.3246 
2508 CL      -5.2426     6.1056    16.4109 Cl    502 CCL4  -0.0812 
2509 CL      -3.6749     6.5571    14.0169 Cl    502 CCL4  -0.0812 
2510 CL      -6.5228     7.1006    14.0165 Cl    502 CCL4  -0.0812 
2511 CL      -5.0633    15.7864    13.7808 Cl    503 CCL4  -0.0812 
2512 C       -4.7685    17.5256    13.9737 C.3   503 CCL4   0.3246 
2513 CL      -5.4839    18.0846    15.4977 Cl    503 CCL4  -0.0812 
2514 CL      -5.5138    18.3973    12.6208 Cl    503 CCL4  -0.0812 
2515 CL      -3.0204    17.8388    13.9961 Cl    503 CCL4  -0.0812 
2516 CL      -0.2022     5.7208    14.1107 Cl    504 CCL4  -0.0812 
2517 C       -0.5346     3.9838    14.0379 C.3   504 CCL4   0.3246 
2518 CL       1.0049     3.1029    13.9639 Cl    504 CCL4  -0.0812 
2519 CL      -1.4904     3.6197    12.5848 Cl    504 CCL4  -0.0812 
2520 CL      -1.4437     3.5077    15.4897 Cl    504 CCL4  -0.0812 
2521 CL      -4.0154    -0.6133     8.4424 Cl    505 CCL4  -0.0812 
2522 C       -5.7391    -0.9277     8.7317 C.3   505 CCL4   0.3246 
2523 CL      -6.2736    -2.2813     7.7170 Cl    505 CCL4  -0.0812 
2524 CL      -6.6883     0.5206     8.3284 Cl    505 CCL4  -0.0812 
2525 CL      -5.9886    -1.3428    10.4370 Cl    505 CCL4  -0.0812 
2526 CL      -2.1789    -2.0198    16.9799 Cl    506 CCL4  -0.0812 
2527 C       -2.1777    -3.5186    17.9253 C.3   506 CCL4   0.3246 
2528 CL      -1.0345    -4.6726    17.2127 Cl    506 CCL4  -0.0812 
2529 CL      -3.8072    -4.2123    17.9050 Cl    506 CCL4  -0.0812 
2530 CL      -1.6976    -3.1708    19.5985 Cl    506 CCL4  -0.0812 
2531 CL      -5.1732    -0.4805    13.9064 Cl    507 CCL4  -0.0812 
2532 C       -5.7983    -0.1615    15.5371 C.3   507 CCL4   0.3246 
2533 CL      -4.6511     0.8772    16.4077 Cl    507 CCL4  -0.0812 
2534 CL      -5.9992    -1.6909    16.4176 Cl    507 CCL4  -0.0812 
2535 CL      -7.3719     0.6517    15.4152 Cl    507 CCL4  -0.0812 
2536 CL       3.1612    17.7643     9.4747 Cl    508 CCL4  -0.0812 
2537 C        1.4137    17.6331     9.2112 C.3   508 CCL4   0.3246 
2538 CL       1.0460    16.0975     8.4056 Cl    508 CCL4  -0.0812 
2539 CL       0.8790    18.9834     8.1905 Cl    508 CCL4  -0.0812 
2540 CL       0.5761    17.6843    10.7747 Cl    508 CCL4  -0.0812 
2541 CL      -4.7444    16.4886     9.7403 Cl    509 CCL4  -0.0812 
2542 C       -3.7091    16.3340     8.3094 C.3   509 CCL4   0.3246 
2543 CL      -2.2674    17.3387     8.5264 Cl    509 CCL4  -0.0812 
2544 CL      -4.5976    16.8688     6.8743 Cl    509 CCL4  -0.0812 
2545 CL      -3.2263    14.6417     8.0933 Cl    509 CCL4  -0.0812 
2546 CL       2.8069     5.0734     3.3912 Cl    510 CCL4  -0.0812 
2547 C        3.0117     3.3280     3.1416 C.3   510 CCL4   0.3246 
2548 CL       2.3461     2.8767     1.5605 Cl    510 CCL4  -0.0812 
2549 CL       2.1596     2.4348     4.4186 Cl    510 CCL4  -0.0812 
2550 CL       4.7383     2.9268     3.1915 Cl    510 CCL4  -0.0812 
2551 CL       0.2673     3.5495     7.3632 Cl    511 CCL4  -0.0812 
2552 C       -0.4718     2.2108     8.2661 C.3   511 CCL4   0.3246 
2553 CL      -2.1580     2.6154     8.6547 Cl    511 CCL4  -0.0812 
2554 CL       0.4333     1.9396     9.7666 Cl    511 CCL4  -0.0812 
2555 CL      -0.4213     0.7347     7.2829 Cl    511 CCL4  -0.0812 
2556 CL      -4.8174     1.9513    11.1542 Cl    512 CCL4  -0.0812 
2557 C       -5.4690     3.3618    12.0056 C.3   512 CCL4   0.3246 
2558 CL      -4.8601     4.8396    11.2313 Cl    512 CCL4  -0.0812 
2559 CL      -4.9650     3.3110    13.7077 Cl    512 CCL4  -0.0812 
2560 CL      -7.2403     3.3366    11.9163 Cl    512 CCL4  -0.0812 
2561 CL     -32.8868     5.6357    15.7393 Cl    513 CCL4  -0.0812 
2562 C      -33.1757     4.7726    14.2152 C.3   513 CCL4   0.3246 
2563 CL     -34.2152     3.3658    14.5171 Cl    513 CCL4  -0.0812 
2564 CL     -31.6283     4.2382    13.5293 Cl    513 CCL4  -0.0812 
2565 CL     -33.9789     5.8560    13.0679 Cl    513 CCL4  -0.0812 
2566 CL      -9.0901    18.9217    11.6074 Cl    514 CCL4  -0.0812 
2567 C       -9.4643    17.8454    12.9687 C.3   514 CCL4   0.3246 
2568 CL     -11.2167    17.5865    13.0500 Cl    514 CCL4  -0.0812 
2569 CL      -8.8972    18.5751    14.4824 Cl    514 CCL4  -0.0812 
2570 CL      -8.6514    16.2890    12.7391 Cl    514 CCL4  -0.0812 
2571 CL      -5.5374    19.6269     4.8630 Cl    515 CCL4  -0.0812 
2572 C       -6.0797    18.3515     3.7531 C.3   515 CCL4   0.3246 
2573 CL      -6.6667    19.0936     2.2532 Cl    515 CCL4  -0.0812 
2574 CL      -7.3976    17.4262     4.5070 Cl    515 CCL4  -0.0812 
2575 CL      -4.7203    17.2680     3.3814 Cl    515 CCL4  -0.0812 
2576 CL      12.7885     0.9852     9.7420 Cl    516 CCL4  -0.0812 
2577 C       13.8102     2.3011     9.1244 C.3   516 CCL4   0.3246 
2578 CL      14.5766     3.1426    10.4866 Cl    516 CCL4  -0.0812 
2579 CL      12.8195     3.4362     8.1857 Cl    516 CCL4  -0.0812 
2580 CL      15.0698     1.6332     8.0759 Cl    516 CCL4  -0.0812 
2581 CL      -3.3940     2.2099    20.7993 Cl    517 CCL4  -0.0812 
2582 C       -2.8031     0.5995    20.3432 C.3   517 CCL4   0.3246 
2583 CL      -4.1549    -0.3749    19.7266 Cl    517 CCL4  -0.0812 
2584 CL      -2.0987    -0.2028    21.7638 Cl    517 CCL4  -0.0812 
2585 CL      -1.5660     0.7694    19.0810 Cl    517 CCL4  -0.0812 
2586 CL       1.4648     4.7312    17.3554 Cl    518 CCL4  -0.0812 
2587 C        1.7507     4.2640    19.0436 C.3   518 CCL4   0.3246 
2588 CL       2.5144     5.6133    19.9060 Cl    518 CCL4  -0.0812 
2589 CL       2.8229     2.8507    19.1060 Cl    518 CCL4  -0.0812 
2590 CL       0.2010     3.8629    19.8095 Cl    518 CCL4  -0.0812 
2591 CL      -1.6290     7.5449    16.7556 Cl    519 CCL4  -0.0812 
2592 C       -2.0376     7.2196    18.4487 C.3   519 CCL4   0.3246 
2593 CL      -0.5958     7.4618    19.4571 Cl    519 CCL4  -0.0812 
2594 CL      -2.5989     5.5412    18.5960 Cl    519 CCL4  -0.0812 
2595 CL      -3.3225     8.3298    18.9740 Cl    519 CCL4  -0.0812 
2596 CL       3.6620    -0.8134    16.7453 Cl    520 CCL4  -0.0812 
2597 C        1.9041    -0.8152    16.9829 C.3   520 CCL4   0.3246 
2598 CL       1.2549     0.7981    16.6305 Cl    520 CCL4  -0.0812 
2599 CL       1.5226    -1.2524    18.6624 Cl    520 CCL4  -0.0812 
2600 CL       1.1781    -1.9971    15.8808 Cl    520 CCL4  -0.0812 
2601 CL      -6.1912     3.1751    18.6019 Cl    521 CCL4  -0.0812 
2602 C       -7.4962     2.5395    19.6233 C.3   521 CCL4   0.3246 
2603 CL      -8.9993     3.4234    19.2825 Cl    521 CCL4  -0.0812 
2604 CL      -7.0602     2.7496    21.3309 Cl    521 CCL4  -0.0812 
2605 CL      -7.7309     0.8123    19.2775 Cl    521 CCL4  -0.0812 
2606 CL      -0.5526     9.8624    10.3669 Cl    522 CCL4  -0.0812 
2607 C       -0.6264     8.6722    11.6783 C.3   522 CCL4   0.3246 
2608 CL      -1.3918     7.1843    11.0791 Cl    522 CCL4  -0.0812 
2609 CL      -1.5794     9.3230    13.0270 Cl    522 CCL4  -0.0812 
2610 CL       1.0225     8.3293    12.2388 Cl    522 CCL4  -0.0812 
2611 CL      -2.1620    13.2103    18.2813 Cl    523 CCL4  -0.0812 
2612 C       -1.6248    12.9874    16.6024 C.3   523 CCL4   0.3246 
2613 CL      -2.0444    11.3478    16.0656 Cl    523 CCL4  -0.0812 
2614 CL       0.1318    13.2169    16.5138 Cl    523 CCL4  -0.0812 
2615 CL      -2.4203    14.1730    15.5473 Cl    523 CCL4  -0.0812 
2616 CL      -5.5324    12.0508    13.8198 Cl    524 CCL4  -0.0812 
2617 C       -6.5537    12.3837    15.2329 C.3   524 CCL4   0.3246 
2618 CL      -7.3937    10.9016    15.7320 Cl    524 CCL4  -0.0812 
2619 CL      -7.7570    13.6206    14.8228 Cl    524 CCL4  -0.0812 
2620 CL      -5.5333    12.9667    16.5613 Cl    524 CCL4  -0.0812 
2621 CL       9.8446     9.3327     6.5020 Cl    525 CCL4  -0.0812 
2622 C        9.4977    11.0637     6.3958 C.3   525 CCL4   0.3246 
2623 CL      10.4766    11.7839     5.0998 Cl    525 CCL4  -0.0812 
2624 CL       9.9015    11.8285     7.9468 Cl    525 CCL4  -0.0812 
2625 CL       7.7728    11.2886     6.0366 Cl    525 CCL4  -0.0812 
2626 CL      -0.5840    13.4014     9.9466 Cl    526 CCL4  -0.0812 
2627 C       -1.6401    13.4238    11.3709 C.3   526 CCL4   0.3246 
2628 CL      -0.7706    12.7294    12.7524 Cl    526 CCL4  -0.0812 
2629 CL      -3.1031    12.4697    11.0454 Cl    526 CCL4  -0.0812 
2630 CL      -2.0950    15.0995    11.7362 Cl    526 CCL4  -0.0812 
2631 CL       0.6877    11.2154     4.6354 Cl    527 CCL4  -0.0812 
2632 C        0.1647    12.0283     6.1265 C.3   527 CCL4   0.3246 
2633 CL      -1.0599    11.0395     6.9467 Cl    527 CCL4  -0.0812 
2634 CL      -0.5217    13.6170     5.7284 Cl    527 CCL4  -0.0812 
2635 CL       1.5581    12.2425     7.2005 Cl    527 CCL4  -0.0812 
2636 CL      -4.4080    11.8809     6.1028 Cl    528 CCL4  -0.0812 
2637 C       -4.7871    12.3840     4.4432 C.3   528 CCL4   0.3246 
2638 CL      -5.8174    13.8280     4.4738 Cl    528 CCL4  -0.0812 
2639 CL      -5.6300    11.0568     3.6154 Cl    528 CCL4  -0.0812 
2640 CL      -3.2869    12.7726     3.5799 Cl    528 CCL4  -0.0812 
2641 CL      -6.7345    13.9511     7.8877 Cl    529 CCL4  -0.0812 
2642 C       -7.7755    14.1964     9.2993 C.3   529 CCL4   0.3246 
2643 CL      -9.1541    13.0839     9.2066 Cl    529 CCL4  -0.0812 
2644 CL      -8.3584    15.8722     9.2995 Cl    529 CCL4  -0.0812 
2645 CL      -6.8545    13.8769    10.7852 Cl    529 CCL4  -0.0812 
2646 CL      -6.2605     7.7532     9.5596 Cl    530 CCL4  -0.0812 
2647 C       -5.2537     9.1733     9.9079 C.3   530 CCL4   0.3246 
2648 CL      -6.0865    10.6439     9.3696 Cl    530 CCL4  -0.0812 
2649 CL      -3.7118     9.0324     9.0475 Cl    530 CCL4  -0.0812 
2650 CL      -4.9500     9.2656    11.6525 Cl    530 CCL4  -0.0812 
2651 CL      -9.2289     9.3940     8.3425 Cl    531 CCL4  -0.0812 
2652 C       -8.8536     9.4871     6.6113 C.3   531 CCL4   0.3246 
2653 CL     -10.3390     9.1974     5.6832 Cl    531 CCL4  -0.0812 
2654 CL      -7.6400     8.2624     6.1891 Cl    531 CCL4  -0.0812 
2655 CL      -8.2085    11.0944     6.2298 Cl    531 CCL4  -0.0812 
2656 CL      14.4663     9.3978    17.8097 Cl    532 CCL4  -0.0812 
2657 C       13.0918     9.9246    18.8005 C.3   532 CCL4   0.3246 
2658 CL      13.6446    10.2683    20.4529 Cl    532 CCL4  -0.0812 
2659 CL      11.8714     8.6343    18.8446 Cl    532 CCL4  -0.0812 
2660 CL      12.3885    11.3958    18.0959 Cl    532 CCL4  -0.0812 
2661 CL       1.0199    11.2173    19.4688 Cl    533 CCL4  -0.0812 
2662 C        2.0458    10.3777    18.2854 C.3   533 CCL4   0.3246 
2663 CL       1.0273     9.7154    16.9939 Cl    533 CCL4  -0.0812 
2664 CL       2.9138     9.0561    19.0910 Cl    533 CCL4  -0.0812 
2665 CL       3.2166    11.5135    17.5811 Cl    533 CCL4  -0.0812 
2666 CL       1.9777    17.4600    19.1602 Cl    534 CCL4  -0.0812 
2667 C        2.4193    15.8340    19.7067 C.3   534 CCL4   0.3246 
2668 CL       3.3561    15.9558    21.2084 Cl    534 CCL4  -0.0812 
2669 CL       3.4034    15.0489    18.4615 Cl    534 CCL4  -0.0812 
2670 CL       0.9492    14.8777    19.9889 Cl    534 CCL4  -0.0812 
2671 CL       6.5736    13.3453    18.3412 Cl    535 CCL4  -0.0812 
2672 C        7.6074    14.1923    19.5096 C.3   535 CCL4   0.3246 
2673 CL       6.8176    15.6995    20.0167 Cl    535 CCL4  -0.0812 
2674 CL       9.1687    14.5678    18.7488 Cl    535 CCL4  -0.0812 
2675 CL       7.8685    13.1575    20.9305 Cl    535 CCL4  -0.0812 
2676 CL      -6.6845    11.4527    19.6412 Cl    536 CCL4  -0.0812 
2677 C       -7.5813    12.9819    19.7397 C.3   536 CCL4   0.3246 
2678 CL      -6.4415    14.3434    19.7846 Cl    536 CCL4  -0.0812 
2679 CL      -8.5725    13.0010    21.2111 Cl    536 CCL4  -0.0812 
2680 CL      -8.6314    13.1287    18.3176 Cl    536 CCL4  -0.0812 
2681 CL      -6.5532     8.5652    21.6844 Cl    537 CCL4  -0.0812 
2682 C       -6.9831     7.1619    20.6880 C.3   537 CCL4   0.3246 
2683 CL      -8.4329     6.3817    21.3562 Cl    537 CCL4  -0.0812 
2684 CL      -5.6325     6.0115    20.6922 Cl    537 CCL4  -0.0812 
2685 CL      -7.3076     7.6908    19.0227 Cl    537 CCL4  -0.0812 
2686 CL       8.1565     8.1685    11.2479 Cl    538 CCL4  -0.0812 
2687 C        8.2202     9.9063    11.6002 C.3   538 CCL4   0.3246 
2688 CL       7.2305    10.7762    10.4166 Cl    538 CCL4  -0.0812 
2689 CL       9.8938    10.4825    11.4931 Cl    538 CCL4  -0.0812 
2690 CL       7.5981    10.2040    13.2360 Cl    538 CCL4  -0.0812 
2691 CL       5.8026     3.5110    13.4825 Cl    539 CCL4  -0.0812 
2692 C        5.2969     2.2257    14.5934 C.3   539 CCL4   0.3246 
2693 CL       4.4643     2.9360    15.9877 Cl    539 CCL4  -0.0812 
2694 CL       6.7314     1.3435    15.1509 Cl    539 CCL4  -0.0812 
2695 CL       4.1929     1.1180    13.7539 Cl    539 CCL4  -0.0812 
2696 CL      10.5880     6.5717     9.0611 Cl    540 CCL4  -0.0812 
2697 C       12.1856     7.2907     8.7730 C.3   540 CCL4   0.3246 
2698 CL      13.3865     6.4955     9.8019 Cl    540 CCL4  -0.0812 
2699 CL      12.1409     9.0196     9.1680 Cl    540 CCL4  -0.0812 
2700 CL      12.6387     7.0745     7.0698 Cl    540 CCL4  -0.0812 
2701 CL       9.5093     2.1389    12.6968 Cl    541 CCL4  -0.0812 
2702 C       10.1519     3.7814    12.9085 C.3   541 CCL4   0.3246 
2703 CL      10.7424     3.9768    14.5693 Cl    541 CCL4  -0.0812 
2704 CL       8.8716     4.9657    12.5869 Cl    541 CCL4  -0.0812 
2705 CL      11.4926     4.0494    11.7816 Cl    541 CCL4  -0.0812 
2706 CL      11.4932     9.7733    14.9304 Cl    542 CCL4  -0.0812 
2707 C       11.2214     8.0446    14.6364 C.3   542 CCL4   0.3246 
2708 CL       9.5481     7.6350    15.0609 Cl    542 CCL4  -0.0812 
2709 CL      12.3342     7.0916    15.6374 Cl    542 CCL4  -0.0812 
2710 CL      11.5077     7.6772    12.9224 Cl    542 CCL4  -0.0812 
2711 CL       2.7552    -0.9304     6.0832 Cl    543 CCL4  -0.0812 
2712 C        4.2679    -0.1864     6.6403 C.3   543 CCL4   0.3246 
2713 CL       5.1229    -1.3003     7.7278 Cl    543 CCL4  -0.0812 
2714 CL       3.8966     1.3202     7.5066 Cl    543 CCL4  -0.0812 
2715 CL       5.2972     0.1637     5.2385 Cl    543 CCL4  -0.0812 
2716 CL      10.6404     0.6508     6.7479 Cl    544 CCL4  -0.0812 
2717 C        9.6763    -0.2163     5.5363 C.3   544 CCL4   0.3246 
2718 CL       8.4654    -1.2103     6.3628 Cl    544 CCL4  -0.0812 
2719 CL      10.7454    -1.2532     4.5697 Cl    544 CCL4  -0.0812 
2720 CL       8.8485     0.9408     4.4726 Cl    544 CCL4  -0.0812 
2721 CL       8.2180    14.5829     4.4155 Cl    545 CCL4  -0.0812 
2722 C        9.2763    15.7962     5.1600 C.3   545 CCL4   0.3246 
2723 CL      10.6316    16.1522     4.0684 Cl    545 CCL4  -0.0812 
2724 CL       9.9014    15.1710     6.6982 Cl    545 CCL4  -0.0812 
2725 CL       8.3500    17.2785     5.4594 Cl    545 CCL4  -0.0812 
2726 CL       7.1225     4.8786     9.1836 Cl    546 CCL4  -0.0812 
2727 C        7.6409     3.2127     8.8622 C.3   546 CCL4   0.3246 
2728 CL       7.2316     2.7662     7.1935 Cl    546 CCL4  -0.0812 
2729 CL       6.8204     2.1140     9.9884 Cl    546 CCL4  -0.0812 
2730 CL       9.3947     3.0929     9.0851 Cl    546 CCL4  -0.0812 
2731 CL       6.0347    -1.0946    11.6326 Cl    547 CCL4  -0.0812 
2732 C        5.6734    -2.3619    12.8228 C.3   547 CCL4   0.3246 
2733 CL       6.4628    -1.9805    14.3644 Cl    547 CCL4  -0.0812 
2734 CL       6.2937    -3.9135    12.2358 Cl    547 CCL4  -0.0812 
2735 CL       3.9154    -2.4686    13.0604 Cl    547 CCL4  -0.0812 
2736 CL       8.3994    13.8276    13.0359 Cl    548 CCL4  -0.0812 
2737 C        9.7074    13.7319    14.2360 C.3   548 CCL4   0.3246 
2738 CL       9.9862    15.3316    14.9524 Cl    548 CCL4  -0.0812 
2739 CL      11.1973    13.1808    13.4440 Cl    548 CCL4  -0.0812 
2740 CL       9.2526    12.5881    15.5157 Cl    548 CCL4  -0.0812 
2741 CL       8.2435     6.3305     6.0960 Cl    549 CCL4  -0.0812 
2742 C        6.9803     6.2605     4.8543 C.3   549 CCL4   0.3246 
2743 CL       5.5445     5.4717     5.5337 Cl    549 CCL4  -0.0812 
2744 CL       7.5712     5.3339     3.4577 Cl    549 CCL4  -0.0812 
2745 CL       6.5607     7.9068     4.3388 Cl    549 CCL4  -0.0812 
2746 CL       5.7822    16.1355     7.5562 Cl    550 CCL4  -0.0812 
2747 C        5.7128    14.9430     8.8639 C.3   550 CCL4   0.3246 
2748 CL       4.1059    14.1972     8.8890 Cl    550 CCL4  -0.0812 
2749 CL       6.0182    15.7279    10.4246 Cl    550 CCL4  -0.0812 
2750 CL       6.9474    13.7070     8.5783 Cl    550 CCL4  -0.0812 
2751 CL       8.1992    -3.0435     9.3841 Cl    551 CCL4  -0.0812 
2752 C        9.6178    -2.1726     9.9961 C.3   551 CCL4   0.3246 
2753 CL       9.9575    -2.6895    11.6618 Cl    551 CCL4  -0.0812 
2754 CL       9.2927    -0.4296     9.9768 Cl    551 CCL4  -0.0812 
2755 CL      11.0156    -2.5223     8.9562 Cl    551 CCL4  -0.0812 
2756 CL       9.2701     2.3667    17.6866 Cl    552 CCL4  -0.0812 
2757 C        8.7712     4.0594    17.8932 C.3   552 CCL4   0.3246 
2758 CL       7.7689     4.2077    19.3514 Cl    552 CCL4  -0.0812 
2759 CL       7.8302     4.5764    16.4793 Cl    552 CCL4  -0.0812 
2760 CL      10.2139     5.0848    18.0564 Cl    552 CCL4  -0.0812 
2761 CL       4.7766     6.4295    16.9328 Cl    553 CCL4  -0.0812 
2762 C        4.5005     7.0067    15.2756 C.3   553 CCL4   0.3246 
2763 CL       3.3275     5.9555    14.4601 Cl    553 CCL4  -0.0812 
2764 CL       6.0296     7.0071    14.3735 Cl    553 CCL4  -0.0812 
2765 CL       3.8572     8.6526    15.3341 Cl    553 CCL4  -0.0812 
2766 CL       6.0215     1.0350    18.7359 Cl    554 CCL4  -0.0812 
2767 C        6.4305    -0.5769    19.3581 C.3   554 CCL4   0.3246 
2768 CL       7.0813    -1.5689    18.0368 Cl    554 CCL4  -0.0812 
2769 CL       4.9729    -1.3477    20.0192 Cl    554 CCL4  -0.0812 
2770 CL       7.6500    -0.4243    20.6409 Cl    554 CCL4  -0.0812 
2771 CL       5.4316    17.8931    17.5310 Cl    555 CCL4  -0.0812 
2772 C        6.5400    17.5381    16.1901 C.3   555 CCL4   0.3246 
2773 CL       8.1941    17.9930    16.6530 Cl    555 CCL4  -0.0812 
2774 CL       6.0501    18.4648    14.7618 Cl    555 CCL4  -0.0812 
2775 CL       6.4782    15.8056    15.8078 Cl    555 CCL4  -0.0812 
2776 CL       5.4880     8.0162     8.1014 Cl    556 CCL4  -0.0812 
2777 C        4.1126     9.0878     7.7665 C.3   556 CCL4   0.3246 
2778 CL       4.6152    10.7662     8.0370 Cl    556 CCL4  -0.0812 
2779 CL       2.7622     8.6845     8.8482 Cl    556 CCL4  -0.0812 
2780 CL       3.5901     8.8930     6.0798 Cl    556 CCL4  -0.0812 
2781 CL       8.9321    10.5663    18.5771 Cl    557 CCL4  -0.0812 
2782 C        7.4717     9.5862    18.3495 C.3   557 CCL4   0.3246 
2783 CL       6.3406     9.8926    19.6833 Cl    557 CCL4  -0.0812 
2784 CL       7.9086     7.8668    18.3333 Cl    557 CCL4  -0.0812 
2785 CL       6.7103    10.0182    16.8062 Cl    557 CCL4  -0.0812 
2786 CL       2.4505    11.7997    10.8606 Cl    558 CCL4  -0.0812 
2787 C        3.4654    11.4089    12.2594 C.3   558 CCL4   0.3246 
2788 CL       2.4539    11.3761    13.7189 Cl    558 CCL4  -0.0812 
2789 CL       4.7296    12.6452    12.4353 Cl    558 CCL4  -0.0812 
2790 CL       4.2194     9.8193    12.0119 Cl    558 CCL4  -0.0812 
2791 CL       3.3700    16.3047    12.8034 Cl    559 CCL4  -0.0812 
2792 C        2.4411    16.0112    14.2857 C.3   559 CCL4   0.3246 
2793 CL       2.5780    17.4077    15.3729 Cl    559 CCL4  -0.0812 
2794 CL       3.0846    14.5676    15.0871 Cl    559 CCL4  -0.0812 
2795 CL       0.7336    15.7577    13.8778 Cl    559 CCL4  -0.0812 
2796 CL      -0.1576    19.7728   -10.8892 Cl    560 CCL4  -0.0812 
2797 C       -0.4022    21.0842   -12.0525 C.3   560 CCL4   0.3246 
2798 CL      -1.7044    20.6327   -13.1652 Cl    560 CCL4  -0.0812 
2799 CL       1.0971    21.3529   -12.9617 Cl    560 CCL4  -0.0812 
2800 CL      -0.8474    22.5684   -11.1892 Cl    560 CCL4  -0.0812 
2801 CL      -1.6143    19.1511     3.0693 Cl    561 CCL4  -0.0812 
2802 C       -0.8993    19.0356     4.6902 C.3   561 CCL4   0.3246 
2803 CL      -0.6561    17.3255     5.1079 Cl    561 CCL4  -0.0812 
2804 CL      -1.9950    19.7830     5.8667 Cl    561 CCL4  -0.0812 
2805 CL       0.6604    19.8860     4.7193 Cl    561 CCL4  -0.0812 
2806 CL       1.7719    23.4719     4.2459 Cl    562 CCL4  -0.0812 
2807 C        0.3935    23.8334     3.1866 C.3   562 CCL4   0.3246 
2808 CL       0.8425    23.4895     1.5042 Cl    562 CCL4  -0.0812 
2809 CL      -0.0503    25.5459     3.3417 Cl    562 CCL4  -0.0812 
2810 CL      -0.9919    22.8275     3.6524 Cl    562 CCL4  -0.0812 
2811 CL      -4.3968    20.9130   -15.5694 Cl    563 CCL4  -0.0812 
2812 C       -6.1686    20.8536   -15.5427 C.3   563 CCL4   0.3246 
2813 CL      -6.7001    19.1866   -15.8305 Cl    563 CCL4  -0.0812 
2814 CL      -6.8168    21.9131   -16.8111 Cl    563 CCL4  -0.0812 
2815 CL      -6.7570    21.3995   -13.9603 Cl    563 CCL4  -0.0812 
2816 CL      -0.0001    21.4504    -7.7466 Cl    564 CCL4  -0.0812 
2817 C       -1.2069    20.2836    -7.1696 C.3   564 CCL4   0.3246 
2818 CL      -0.6430    18.6311    -7.4972 Cl    564 CCL4  -0.0812 
2819 CL      -2.7468    20.5676    -8.0092 Cl    564 CCL4  -0.0812 
2820 CL      -1.4334    20.4881    -5.4207 Cl    564 CCL4  -0.0812 
2821 CL      -4.3122    21.8078   -11.2497 Cl    565 CCL4  -0.0812 
2822 C       -5.0306    23.0768   -10.2436 C.3   565 CCL4   0.3246 
2823 CL      -3.7461    24.0286    -9.4772 Cl    565 CCL4  -0.0812 
2824 CL      -6.0412    22.3320    -8.9879 Cl    565 CCL4  -0.0812 
2825 CL      -6.0146    24.1413   -11.2664 Cl    565 CCL4  -0.0812 
2826 CL       3.0134    23.8664    21.3647 Cl    566 CCL4  -0.0812 
2827 C        1.5550    23.4266    22.2793 C.3   566 CCL4   0.3246 
2828 CL       0.6172    24.8914    22.6385 Cl    566 CCL4  -0.0812 
2829 CL       2.0241    22.6361    23.7983 Cl    566 CCL4  -0.0812 
2830 CL       0.5614    22.3156    21.3141 Cl    566 CCL4  -0.0812 
2831 CL      -1.9440    23.4930   -15.1127 Cl    567 CCL4  -0.0812 
2832 C       -2.9863    24.8376   -14.6015 C.3   567 CCL4   0.3246 
2833 CL      -2.5514    26.2956   -15.5175 Cl    567 CCL4  -0.0812 
2834 CL      -2.7628    25.1399   -12.8662 Cl    567 CCL4  -0.0812 
2835 CL      -4.6879    24.4305   -14.9075 Cl    567 CCL4  -0.0812 
2836 CL      -4.2620    24.8374    -3.6872 Cl    568 CCL4  -0.0812 
2837 C       -4.6525    23.7869    -5.0629 C.3   568 CCL4   0.3246 
2838 CL      -5.8629    24.5806    -6.0889 Cl    568 CCL4  -0.0812 
2839 CL      -5.2934    22.2417    -4.4764 Cl    568 CCL4  -0.0812 
2840 CL      -3.1839    23.4851    -6.0047 Cl    568 CCL4  -0.0812 
2841 CL       1.2383    19.9251     1.0508 Cl    569 CCL4  -0.0812 
2842 C        2.6156    18.8842     1.4580 C.3   569 CCL4   0.3246 
2843 CL       3.8334    19.8382     2.3258 Cl    569 CCL4  -0.0812 
2844 CL       3.3219    18.2378    -0.0345 Cl    569 CCL4  -0.0812 
2845 CL       2.0725    17.5414     2.4858 Cl    569 CCL4  -0.0812 
2846 CL     -10.3723    19.4314    -1.6017 Cl    570 CCL4  -0.0812 
2847 C       -8.6111    19.4394    -1.8319 C.3   570 CCL4   0.3246 
2848 CL      -7.9662    17.8138    -1.5302 Cl    570 CCL4  -0.0812 
2849 CL      -7.8640    20.5797    -0.6990 Cl    570 CCL4  -0.0812 
2850 CL      -8.2363    19.9359    -3.4930 Cl    570 CCL4  -0.0812 
2851 CL       4.9149    24.4504    -9.4027 Cl    571 CCL4  -0.0812 
2852 C        3.4253    23.9551    -8.5724 C.3   571 CCL4   0.3246 
2853 CL       2.1352    23.7364    -9.7696 Cl    571 CCL4  -0.0812 
2854 CL       2.9515    25.2103    -7.4080 Cl    571 CCL4  -0.0812 
2855 CL       3.6968    22.4261    -7.7122 Cl    571 CCL4  -0.0812 
2856 CL       1.3203    24.2853    -2.0073 Cl    572 CCL4  -0.0812 
2857 C        0.5533    22.9952    -2.9555 C.3   572 CCL4   0.3246 
2858 CL       1.0664    23.1336    -4.6506 Cl    572 CCL4  -0.0812 
2859 CL      -1.2120    23.1546    -2.8534 Cl    572 CCL4  -0.0812 
2860 CL       1.0382    21.4138    -2.3081 Cl    572 CCL4  -0.0812 
2861 CL      -2.7852    26.8870    -7.2598 Cl    573 CCL4  -0.0812 
2862 C       -1.0716    26.4875    -7.0068 C.3   573 CCL4   0.3246 
2863 CL      -0.6544    25.0373    -7.9417 Cl    573 CCL4  -0.0812 
2864 CL      -0.7831    26.1864    -5.2793 Cl    573 CCL4  -0.0812 
2865 CL      -0.0607    27.8440    -7.5482 Cl    573 CCL4  -0.0812 
2866 CL      -9.1027    27.5080    -9.9560 Cl    574 CCL4  -0.0812 
2867 C       -8.3115    26.5565    -8.6820 C.3   574 CCL4   0.3246 
2868 CL      -8.6399    24.8342    -8.9441 Cl    574 CCL4  -0.0812 
2869 CL      -8.9487    27.0372    -7.0948 Cl    574 CCL4  -0.0812 
2870 CL      -6.5588    26.8440    -8.7367 Cl    574 CCL4  -0.0812 
2871 CL      -1.9717    21.5707     0.3036 Cl    575 CCL4  -0.0812 
2872 C       -3.4359    22.5260     0.6014 C.3   575 CCL4   0.3246 
2873 CL      -4.2127    21.9593     2.0954 Cl    575 CCL4  -0.0812 
2874 CL      -4.5569    22.3351    -0.7609 Cl    575 CCL4  -0.0812 
2875 CL      -2.9958    24.2389     0.7614 Cl    575 CCL4  -0.0812 
2876 CL      -9.8158    23.4080     3.0744 Cl    576 CCL4  -0.0812 
2877 C       -8.0799    23.7646     3.0075 C.3   576 CCL4   0.3246 
2878 CL      -7.8081    25.4611     3.4562 Cl    576 CCL4  -0.0812 
2879 CL      -7.4801    23.4859     1.3629 Cl    576 CCL4  -0.0812 
2880 CL      -7.2132    22.7016     4.1318 Cl    576 CCL4  -0.0812 
2881 CL       3.0259    26.3165   -14.9031 Cl    577 CCL4  -0.0812 
2882 C        2.5183    25.5760   -13.3702 C.3   577 CCL4   0.3246 
2883 CL       0.7993    25.1473   -13.4595 Cl    577 CCL4  -0.0812 
2884 CL       2.7755    26.7221   -12.0374 Cl    577 CCL4  -0.0812 
2885 CL       3.4726    24.1120   -13.0776 Cl    577 CCL4  -0.0812 
2886 CL       9.5604    26.2268     5.5503 Cl    578 CCL4  -0.0812 
2887 C       11.2491    25.7116     5.7427 C.3   578 CCL4   0.3246 
2888 CL      11.3013    23.9692     6.0761 Cl    578 CCL4  -0.0812 
2889 CL      11.9842    26.5961     7.0959 Cl    578 CCL4  -0.0812 
2890 CL      12.1497    26.0582     4.2508 Cl    578 CCL4  -0.0812 
2891 CL       9.8043    23.2922   -11.1446 Cl    579 CCL4  -0.0812 
2892 C        9.4978    24.7998   -12.0333 C.3   579 CCL4   0.3246 
2893 CL       7.9583    25.5093   -11.4989 Cl    579 CCL4  -0.0812 
2894 CL       9.4199    24.4555   -13.7747 Cl    579 CCL4  -0.0812 
2895 CL      10.8164    25.9464   -11.7155 Cl    579 CCL4  -0.0812 
2896 CL       7.1117    23.4840   -18.3722 Cl    580 CCL4  -0.0812 
2897 C        6.5031    22.5997   -16.9593 C.3   580 CCL4   0.3246 
2898 CL       5.4668    21.2580   -17.4945 Cl    580 CCL4  -0.0812 
2899 CL       5.5660    23.7085   -15.9393 Cl    580 CCL4  -0.0812 
2900 CL       7.8742    21.9591   -16.0315 Cl    580 CCL4  -0.0812 
2901 CL       4.7546    20.5612   -13.9600 Cl    581 CCL4  -0.0812 
2902 C        5.6050    20.9554   -12.4511 C.3   581 CCL4   0.3246 
2903 CL       6.5213    22.4585   -12.6525 Cl    581 CCL4  -0.0812 
2904 CL       6.7325    19.6517   -12.0469 Cl    581 CCL4  -0.0812 
2905 CL       4.4273    21.1501   -11.1376 Cl    581 CCL4  -0.0812 
2906 CL      10.1690    17.4838   -12.4319 Cl    582 CCL4  -0.0812 
2907 C       10.7319    19.0926   -11.9300 C.3   582 CCL4   0.3246 
2908 CL      10.0200    19.5069   -10.3557 Cl    582 CCL4  -0.0812 
2909 CL      10.2392    20.2961   -13.1408 Cl    582 CCL4  -0.0812 
2910 CL      12.5034    19.0845   -11.7940 Cl    582 CCL4  -0.0812 
2911 CL       7.0081    22.6567    -6.1302 Cl    583 CCL4  -0.0812 
2912 C        8.0895    22.7303    -7.5367 C.3   583 CCL4   0.3246 
2913 CL       7.3621    21.8446    -8.8948 Cl    583 CCL4  -0.0812 
2914 CL       9.6538    21.9973    -7.1226 Cl    583 CCL4  -0.0812 
2915 CL       8.3359    24.4288    -7.9937 Cl    583 CCL4  -0.0812 
2916 CL      -7.7236    23.7880    -2.3575 Cl    584 CCL4  -0.0812 
2917 C       -7.7367    25.5249    -1.9876 C.3   584 CCL4   0.3246 
2918 CL      -7.6697    26.4516    -3.5017 Cl    584 CCL4  -0.0812 
2919 CL      -9.2264    25.9343    -1.1123 Cl    584 CCL4  -0.0812 
2920 CL      -6.3304    25.9307    -0.9793 Cl    584 CCL4  -0.0812 
2921 CL      12.6014    20.9148     1.4952 Cl    585 CCL4  -0.0812 
2922 C       11.9393    22.5304     1.1703 C.3   585 CCL4   0.3246 
2923 CL      10.9231    22.4749    -0.2857 Cl    585 CCL4  -0.0812 
2924 CL      13.2728    23.6774     0.9191 Cl    585 CCL4  -0.0812 
2925 CL      10.9564    23.0546     2.5527 Cl    585 CCL4  -0.0812 
2926 CL       4.1095    22.2502    -0.3783 Cl    586 CCL4  -0.0812 
2927 C        5.3425    21.8726    -1.6000 C.3   586 CCL4   0.3246 
2928 CL       5.9826    20.2414    -1.3083 Cl    586 CCL4  -0.0812 
2929 CL       6.6660    23.0526    -1.4902 Cl    586 CCL4  -0.0812 
2930 CL       4.6143    21.9505    -3.2198 Cl    586 CCL4  -0.0812 
2931 CL       7.8409    21.2379     1.5255 Cl    587 CCL4  -0.0812 
2932 C        8.5193    19.6088     1.7075 C.3   587 CCL4   0.3246 
2933 CL       9.3802    19.1551     0.2220 Cl    587 CCL4  -0.0812 
2934 CL       7.2106    18.4501     2.0105 Cl    587 CCL4  -0.0812 
2935 CL       9.6483    19.5941     3.0751 Cl    587 CCL4  -0.0812 
2936 CL      -0.2647    20.1506    13.2572 Cl    588 CCL4  -0.0812 
2937 C       -0.7102    21.1262    11.8393 C.3   588 CCL4   0.3246 
2938 CL      -2.0273    20.3209    10.9653 Cl    588 CCL4  -0.0812 
2939 CL       0.6892    21.3073    10.7671 Cl    588 CCL4  -0.0812 
2940 CL      -1.2367    22.7379    12.3568 Cl    588 CCL4  -0.0812 
2941 CL      -4.4061    20.2755     8.4469 Cl    589 CCL4  -0.0812 
2942 C       -6.1222    20.5792     8.7631 C.3   589 CCL4   0.3246 
2943 CL      -7.0479    19.1005     8.4389 Cl    589 CCL4  -0.0812 
2944 CL      -6.6893    21.8825     7.7052 Cl    589 CCL4  -0.0812 
2945 CL      -6.3391    21.0619    10.4562 Cl    589 CCL4  -0.0812 
2946 CL      -2.6841    19.1609    17.7524 Cl    590 CCL4  -0.0812 
2947 C       -2.1761    17.5239    18.1999 C.3   590 CCL4   0.3246 
2948 CL      -0.9117    16.9713    17.0812 Cl    590 CCL4  -0.0812 
2949 CL      -3.5759    16.4350    18.1109 Cl    590 CCL4  -0.0812 
2950 CL      -1.5370    17.5404    19.8559 Cl    590 CCL4  -0.0812 
2951 CL      -4.2432    21.5520    13.6375 Cl    591 CCL4  -0.0812 
2952 C       -3.8947    22.3052    15.2061 C.3   591 CCL4   0.3246 
2953 CL      -2.1903    22.0448    15.6317 Cl    591 CCL4  -0.0812 
2954 CL      -4.9294    21.5760    16.4447 Cl    591 CCL4  -0.0812 
2955 CL      -4.2243    24.0473    15.1171 Cl    591 CCL4  -0.0812 
2956 CL       7.3168    25.1988     2.6015 Cl    592 CCL4  -0.0812 
2957 C        6.6160    24.1846     3.8809 C.3   592 CCL4   0.3246 
2958 CL       5.3320    23.1687     3.1926 Cl    592 CCL4  -0.0812 
2959 CL       5.9274    25.2167     5.1527 Cl    592 CCL4  -0.0812 
2960 CL       7.8874    23.1569     4.5744 Cl    592 CCL4  -0.0812 
2961 CL       0.6714    25.6064     6.9415 Cl    593 CCL4  -0.0812 
2962 C        0.6382    24.2558     8.0929 C.3   593 CCL4   0.3246 
2963 CL      -0.1528    24.7828     9.5934 Cl    593 CCL4  -0.0812 
2964 CL       2.3029    23.7529     8.4438 Cl    593 CCL4  -0.0812 
2965 CL      -0.2610    22.8898     7.3950 Cl    593 CCL4  -0.0812 
2966 CL      -4.0547    25.1835     4.0714 Cl    594 CCL4  -0.0812 
2967 C       -4.1138    24.6970     5.7774 C.3   594 CCL4   0.3246 
2968 CL      -5.7095    25.0919     6.4476 Cl    594 CCL4  -0.0812 
2969 CL      -2.8640    25.5699     6.6858 Cl    594 CCL4  -0.0812 
2970 CL      -3.8248    22.9507     5.9045 Cl    594 CCL4  -0.0812 
2971 CL      -3.8160    23.6939     9.8171 Cl    595 CCL4  -0.0812 
2972 C       -4.4670    25.0105    10.8183 C.3   595 CCL4   0.3246 
2973 CL      -5.0245    26.3309     9.7707 Cl    595 CCL4  -0.0812 
2974 CL      -3.1979    25.6231    11.8989 Cl    595 CCL4  -0.0812 
2975 CL      -5.8291    24.4063    11.7868 Cl    595 CCL4  -0.0812 
2976 CL      14.3611    22.4846    10.6113 Cl    596 CCL4  -0.0812 
2977 C       14.1664    24.1100     9.9265 C.3   596 CCL4   0.3246 
2978 CL      15.3533    25.2080    10.6619 Cl    596 CCL4  -0.0812 
2979 CL      12.5263    24.6967    10.2695 Cl    596 CCL4  -0.0812 
2980 CL      14.4225    24.0517     8.1696 Cl    596 CCL4  -0.0812 
2981 CL      -3.7006    23.2762    21.7006 Cl    597 CCL4  -0.0812 
2982 C       -3.4981    21.9343    20.5559 C.3   597 CCL4   0.3246 
2983 CL      -5.0921    21.3610    20.0209 Cl    597 CCL4  -0.0812 
2984 CL      -2.6339    20.6014    21.3457 Cl    597 CCL4  -0.0812 
2985 CL      -2.5611    22.5010    19.1586 Cl    597 CCL4  -0.0812 
2986 CL       3.4704    20.8123    16.4107 Cl    598 CCL4  -0.0812 
2987 C        2.3839    21.2625    17.7410 C.3   598 CCL4   0.3246 
2988 CL       2.1022    23.0165    17.7160 Cl    598 CCL4  -0.0812 
2989 CL       3.1353    20.8054    19.2842 Cl    598 CCL4  -0.0812 
2990 CL       0.8314    20.4194    17.5515 Cl    598 CCL4  -0.0812 
2991 CL      -7.6890    23.6287    17.6604 Cl    599 CCL4  -0.0812 
2992 C       -8.7327    22.3261    18.2682 C.3   599 CCL4   0.3246 
2993 CL     -10.3627    22.5098    17.5897 Cl    599 CCL4  -0.0812 
2994 CL      -8.8183    22.4139    20.0400 Cl    599 CCL4  -0.0812 
2995 CL      -8.0635    20.7558    17.7809 Cl    599 CCL4  -0.0812 
2996 CL       2.9868    24.5356    11.9878 Cl    600 CCL4  -0.0812 
2997 C        2.5039    24.4315    13.6934 C.3   600 CCL4   0.3246 
2998 CL       1.2231    25.6176    14.0219 Cl    600 CCL4  -0.0812 
2999 CL       3.9082    24.7591    14.7320 Cl    600 CCL4  -0.0812 
3000 CL       1.8933    22.8040    14.0330 Cl    600 CCL4  -0.0812 
3001 CL       8.9050    20.4893    13.4693 Cl    601 CCL4  -0.0812 
3002 C        9.9701    21.8853    13.7221 C.3   601 CCL4   0.3246 
3003 CL      10.6504    21.8241    15.3623 Cl    601 CCL4  -0.0812 
3004 CL       9.0370    23.3831    13.5254 Cl    601 CCL4  -0.0812 
3005 CL      11.2859    21.8475    12.5300 Cl    601 CCL4  -0.0812 
3006 CL       3.8866    18.6128     5.8063 Cl    602 CCL4  -0.0812 
3007 C        4.9716    19.9548     6.2104 C.3   602 CCL4   0.3246 
3008 CL       5.7486    19.6451     7.7737 Cl    602 CCL4  -0.0812 
3009 CL       4.0328    21.4577     6.2939 Cl    602 CCL4  -0.0812 
3010 CL       6.2219    20.1025     4.9636 Cl    602 CCL4  -0.0812 
3011 CL      11.9765    21.0604     8.2505 Cl    603 CCL4  -0.0812 
3012 C       11.3433    20.1277     6.8777 C.3   603 CCL4   0.3246 
3013 CL      11.5373    18.3925     7.1958 Cl    603 CCL4  -0.0812 
3014 CL      12.2430    20.5461     5.4064 Cl    603 CCL4  -0.0812 
3015 CL       9.6217    20.5082     6.6571 Cl    603 CCL4  -0.0812 
3016 CL       9.2188    24.2071     8.9561 Cl    604 CCL4  -0.0812 
3017 C        7.8036    23.2349     9.4008 C.3   604 CCL4   0.3246 
3018 CL       6.7681    23.0250     7.9779 Cl    604 CCL4  -0.0812 
3019 CL       6.8885    24.0692    10.6728 Cl    604 CCL4  -0.0812 
3020 CL       8.3385    21.6462     9.9894 Cl    604 CCL4  -0.0812 
3021 CL       4.2108    21.4598    10.3994 Cl    605 CCL4  -0.0812 
3022 C        4.7288    20.5795    11.8486 C.3   605 CCL4   0.3246 
3023 CL       5.4660    21.7147    12.9965 Cl    605 CCL4  -0.0812 
3024 CL       5.9120    19.3414    11.3863 Cl    605 CCL4  -0.0812 
3025 CL       3.3260    19.8051    12.6093 Cl    605 CCL4  -0.0812 
3026 CL      10.4178    15.7915    10.2153 Cl    606 CCL4  -0.0812 
3027 C        9.6813    17.3696    10.5680 C.3   606 CCL4   0.3246 
3028 CL       8.7802    17.2675    12.0934 Cl    606 CCL4  -0.0812 
3029 CL       8.5858    17.8237     9.2473 Cl    606 CCL4  -0.0812 
3030 CL      10.9450    18.6036    10.7193 Cl    606 CCL4  -0.0812 
3031 CL       5.7108    23.3341    18.2598 Cl    607 CCL4  -0.0812 
3032 C        7.0495    22.2028    17.9715 C.3   607 CCL4   0.3246 
3033 CL       6.9859    21.6334    16.2936 Cl    607 CCL4  -0.0812 
3034 CL       6.9069    20.8150    19.0710 Cl    607 CCL4  -0.0812 
3035 CL       8.5970    23.0275    18.2537 Cl    607 CCL4  -0.0812 
@<TRIPOS>BOND
   1    1    2  1   
   2    2    3  1   
   3    2    4  1   
   4    2    5  1   
   5    6    7  1   
   6    7    8  1   
   7    7    9  1   
   8    7   10  1   
   9   11   12  1   
  10   12   13  1   
  11   12   14  1   
  12   12   15  1   
  13   16   17  1   
  14   17   18  1   
  15   17   19  1   
  16   17   20  1   
  17   21   22  1   
  18   22   23  1   
  19   22   24  1   
  20   22   25  1   
  21   26   27  1   
  22   27   28  1   
  23   27   29  1   
  24   27   30  1   
  25   31   32  1   
  26   32   33  1   
  27   32   34  1   
  28   32   35  1   
  29   36   37  1   
  30   37   38  1   
  31   37   39  1   
  32   37   40  1   
  33   41   42  1   
  34   42   43  1   
  35   42   44  1   
  36   42   45  1   
  37   46   47  1   
  38   47   48  1   
  39   47   49  1   
  40   47   50  1   
  41   51   52  1   
  42   52   53  1   
  43   52   54  1   
  44   52   55  1   
  45   56   57  1   
  46   57   58  1   
  47   57   59  1   
  48   57   60  1   
  49   61   62  1   
  50   62   63  1   
  51   62   64  1   
  52   62   65  1   
  53   66   67  1   
  54   67   68  1   
  55   67   69  1   
  56   67   70  1   
  57   71   72  1   
  58   72   73  1   
  59   72   74  1   
  60   72   75  1   
  61   76   77  1   
  62   77   78  1   
  63   77   79  1   
  64   77   80  1   
  65   81   82  1   
  66   82   83  1   
  67   82   84  1   
  68   82   85  1   
  69   86   87  1   
  70   87   88  1   
  71   87   89  1   
  72   87   90  1   
  73   91   92  1   
  74   92   93  1   
  75   92   94  1   
  76   92   95  1   
  77   96   97  1   
  78   97   98  1   
  79   97   99  1   
  80   97  100  1   
  81  101  102  1   
  82  102  103  1   
  83  102  104  1   
  84  102  105  1   
  85  106  107  1   
  86  107  108  1   
  87  107  109  1   
  88  107  110  1   
  89  111  112  1   
  90  112  113  1   
  91  112  114  1   
  92  112  115  1   
  93  116  117  1   
  94  117  118  1   
  95  117  119  1   
  96  117  120  1   
  97  121  122  1   
  98  122  123  1   
  99  122  124  1   
 100  122  125  1   
 101  126  127  1   
 102  127  128  1   
 103  127  129  1   
 104  127  130  1   
 105  131  132  1   
 106  132  133  1   
 107  132  134  1   
 108  132  135  1   
 109  136  137  1   
 110  137  138  1   
 111  137  139  1   
 112  137  140  1   
 113  141  142  1   
 114  142  143  1   
 115  142  144  1   
 116  142  145  1   
 117  146  147  1   
 118  147  148  1   
 119  147  149  1   
 120  147  150  1   
 121  151  152  1   
 122  152  153  1   
 123  152  154  1   
 124  152  155  1   
 125  156  157  1   
 126  157  158  1   
 127  157  159  1   
 128  157  160  1   
 129  161  162  1   
 130  162  163  1   
 131  162  164  1   
 132  162  165  1   
 133  166  167  1   
 134  167  168  1   
 135  167  169  1   
 136  167  170  1   
 137  171  172  1   
 138  172  173  1   
 139  172  174  1   
 140  172  175  1   
 141  176  177  1   
 142  177  178  1   
 143  177  179  1   
 144  177  180  1   
 145  181  182  1   
 146  182  183  1   
 147  182  184  1   
 148  182  185  1   
 149  186  187  1   
 150  187  188  1   
 151  187  189  1   
 152  187  190  1   
 153  191  192  1   
 154  192  193  1   
 155  192  194  1   
 156  192  195  1   
 157  196  197  1   
 158  197  198  1   
 159  197  199  1   
 160  197  200  1   
 161  201  202  1   
 162  202  203  1   
 163  202  204  1   
 164  202  205  1   
 165  206  207  1   
 166  207  208  1   
 167  207  209  1   
 168  207  210  1   
 169  211  212  1   
 170  212  213  1   
 171  212  214  1   
 172  212  215  1   
 173  216  217  1   
 174  217  218  1   
 175  217  219  1   
 176  217  220  1   
 177  221  222  1   
 178  222  223  1   
 179  222  224  1   
 180  222  225  1   
 181  226  227  1   
 182  227  228  1   
 183  227  229  1   
 184  227  230  1   
 185  231  232  1   
 186  232  233  1   
 187  232  234  1   
 188  232  235  1   
 189  236  237  1   
 190  237  238  1   
 191  237  239  1   
 192  237  240  1   
 193  241  242  1   
 194  242  243  1   
 195  242  244  1   
 196  242  245  1   
 197  246  247  1   
 198  247  248  1   
 199  247  249  1   
 200  247  250  1   
 201  251  252  1   
 202  252  253  1   
 203  252  254  1   
 204  252  255  1   
 205  256  257  1   
 206  257  258  1   
 207  257  259  1   
 208  257  260  1   
 209  261  262  1   
 210  262  263  1   
 211  262  264  1   
 212  262  265  1   
 213  266  267  1   
 214  267  268  1   
 215  267  269  1   
 216  267  270  1   
 217  271  272  1   
 218  272  273  1   
 219  272  274  1   
 220  272  275  1   
 221  276  277  1   
 222  277  278  1   
 223  277  279  1   
 224  277  280  1   
 225  281  282  1   
 226  282  283  1   
 227  282  284  1   
 228  282  285  1   
 229  286  287  1   
 230  287  288  1   
 231  287  289  1   
 232  287  290  1   
 233  291  292  1   
 234  292  293  1   
 235  292  294  1   
 236  292  295  1   
 237  296  297  1   
 238  297  298  1   
 239  297  299  1   
 240  297  300  1   
 241  301  302  1   
 242  302  303  1   
 243  302  304  1   
 244  302  305  1   
 245  306  307  1   
 246  307  308  1   
 247  307  309  1   
 248  307  310  1   
 249  311  312  1   
 250  312  313  1   
 251  312  314  1   
 252  312  315  1   
 253  316  317  1   
 254  317  318  1   
 255  317  319  1   
 256  317  320  1   
 257  321  322  1   
 258  322  323  1   
 259  322  324  1   
 260  322  325  1   
 261  326  327  1   
 262  327  328  1   
 263  327  329  1   
 264  327  330  1   
 265  331  332  1   
 266  332  333  1   
 267  332  334  1   
 268  332  335  1   
 269  336  337  1   
 270  337  338  1   
 271  337  339  1   
 272  337  340  1   
 273  341  342  1   
 274  342  343  1   
 275  342  344  1   
 276  342  345  1   
 277  346  347  1   
 278  347  348  1   
 279  347  349  1   
 280  347  350  1   
 281  351  352  1   
 282  352  353  1   
 283  352  354  1   
 284  352  355  1   
 285  356  357  1   
 286  357  358  1   
 287  357  359  1   
 288  357  360  1   
 289  361  362  1   
 290  362  363  1   
 291  362  364  1   
 292  362  365  1   
 293  366  367  1   
 294  367  368  1   
 295  367  369  1   
 296  367  370  1   
 297  371  372  1   
 298  372  373  1   
 299  372  374  1   
 300  372  375  1   
 301  376  377  1   
 302  377  378  1   
 303  377  379  1   
 304  377  380  1   
 305  381  382  1   
 306  382  383  1   
 307  382  384  1   
 308  382  385  1   
 309  386  387  1   
 310  387  388  1   
 311  387  389  1   
 312  387  390  1   
 313  391  392  1   
 314  392  393  1   
 315  392  394  1   
 316  392  395  1   
 317  396  397  1   
 318  397  398  1   
 319  397  399  1   
 320  397  400  1   
 321  401  402  1   
 322  402  403  1   
 323  402  404  1   
 324  402  405  1   
 325  406  407  1   
 326  407  408  1   
 327  407  409  1   
 328  407  410  1   
 329  411  412  1   
 330  412  413  1   
 331  412  414  1   
 332  412  415  1   
 333  416  417  1   
 334  417  418  1   
 335  417  419  1   
 336  417  420  1   
 337  421  422  1   
 338  422  423  1   
 339  422  424  1   
 340  422  425  1   
 341  426  427  1   
 342  427  428  1   
 343  427  429  1   
 344  427  430  1   
 345  431  432  1   
 346  432  433  1   
 347  432  434  1   
 348  432  435  1   
 349  436  437  1   
 350  437  438  1   
 351  437  439  1   
 352  437  440  1   
 353  441  442  1   
 354  442  443  1   
 355  442  444  1   
 356  442  445  1   
 357  446  447  1   
 358  447  448  1   
 359  447  449  1   
 360  447  450  1   
 361  451  452  1   
 362  452  453  1   
 363  452  454  1   
 364  452  455  1   
 365  456  457  1   
 366  457  458  1   
 367  457  459  1   
 368  457  460  1   
 369  461  462  1   
 370  462  463  1   
 371  462  464  1   
 372  462  465  1   
 373  466  467  1   
 374  467  468  1   
 375  467  469  1   
 376  467  470  1   
 377  471  472  1   
 378  472  473  1   
 379  472  474  1   
 380  472  475  1   
 381  476  477  1   
 382  477  478  1   
 383  477  479  1   
 384  477  480  1   
 385  481  482  1   
 386  482  483  1   
 387  482  484  1   
 388  482  485  1   
 389  486  487  1   
 390  487  488  1   
 391  487  489  1   
 392  487  490  1   
 393  491  492  1   
 394  492  493  1   
 395  492  494  1   
 396  492  495  1   
 397  496  497  1   
 398  497  498  1   
 399  497  499  1   
 400  497  500  1   
 401  501  502  1   
 402  502  503  1   
 403  502  504  1   
 404  502  505  1   
 405  506  507  1   
 406  507  508  1   
 407  507  509  1   
 408  507  510  1   
 409  511  512  1   
 410  512  513  1   
 411  512  514  1   
 412  512  515  1   
 413  516  517  1   
 414  517  518  1   
 415  517  519  1   
 416  517  520  1   
 417  521  522  1   
 418  522  523  1   
 419  522  524  1   
 420  522  525  1   
 421  526  527  1   
 422  527  528  1   
 423  527  529  1   
 424  527  530  1   
 425  531  532  1   
 426  532  533  1   
 427  532  534  1   
 428  532  535  1   
 429  536  537  1   
 430  537  538  1   
 431  537  539  1   
 432  537  540  1   
 433  541  542  1   
 434  542  543  1   
 435  542  544  1   
 436  542  545  1   
 437  546  547  1   
 438  547  548  1   
 439  547  549  1   
 440  547  550  1   
 441  551  552  1   
 442  552  553  1   
 443  552  554  1   
 444  552  555  1   
 445  556  557  1   
 446  557  558  1   
 447  557  559  1   
 448  557  560  1   
 449  561  562  1   
 450  562  563  1   
 451  562  564  1   
 452  562  565  1   
 453  566  567  1   
 454  567  568  1   
 455  567  569  1   
 456  567  570  1   
 457  571  572  1   
 458  572  573  1   
 459  572  574  1   
 460  572  575  1   
 461  576  577  1   
 462  577  578  1   
 463  577  579  1   
 464  577  580  1   
 465  581  582  1   
 466  582  583  1   
 467  582  584  1   
 468  582  585  1   
 469  586  587  1   
 470  587  588  1   
 471  587  589  1   
 472  587  590  1   
 473  591  592  1   
 474  592  593  1   
 475  592  594  1   
 476  592  595  1   
 477  596  597  1   
 478  597  598  1   
 479  597  599  1   
 480  597  600  1   
 481  601  602  1   
 482  602  603  1   
 483  602  604  1   
 484  602  605  1   
 485  606  607  1   
 486  607  608  1   
 487  607  609  1   
 488  607  610  1   
 489  611  612  1   
 490  612  613  1   
 491  612  614  1   
 492  612  615  1   
 493  616  617  1   
 494  617  618  1   
 495  617  619  1   
 496  617  620  1   
 497  621  622  1   
 498  622  623  1   
 499  622  624  1   
 500  622  625  1   
 501  626  627  1   
 502  627  628  1   
 503  627  629  1   
 504  627  630  1   
 505  631  632  1   
 506  632  633  1   
 507  632  634  1   
 508  632  635  1   
 509  636  637  1   
 510  637  638  1   
 511  637  639  1   
 512  637  640  1   
 513  641  642  1   
 514  642  643  1   
 515  642  644  1   
 516  642  645  1   
 517  646  647  1   
 518  647  648  1   
 519  647  649  1   
 520  647  650  1   
 521  651  652  1   
 522  652  653  1   
 523  652  654  1   
 524  652  655  1   
 525  656  657  1   
 526  657  658  1   
 527  657  659  1   
 528  657  660  1   
 529  661  662  1   
 530  662  663  1   
 531  662  664  1   
 532  662  665  1   
 533  666  667  1   
 534  667  668  1   
 535  667  669  1   
 536  667  670  1   
 537  671  672  1   
 538  672  673  1   
 539  672  674  1   
 540  672  675  1   
 541  676  677  1   
 542  677  678  1   
 543  677  679  1   
 544  677  680  1   
 545  681  682  1   
 546  682  683  1   
 547  682  684  1   
 548  682  685  1   
 549  686  687  1   
 550  687  688  1   
 551  687  689  1   
 552  687  690  1   
 553  691  692  1   
 554  692  693  1   
 555  692  694  1   
 556  692  695  1   
 557  696  697  1   
 558  697  698  1   
 559  697  699  1   
 560  697  700  1   
 561  701  702  1   
 562  702  703  1   
 563  702  704  1   
 564  702  705  1   
 565  706  707  1   
 566  707  708  1   
 567  707  709  1   
 568  707  710  1   
 569  711  712  1   
 570  712  713  1   
 571  712  714  1   
 572  712  715  1   
 573  716  717  1   
 574  717  718  1   
 575  717  719  1   
 576  717  720  1   
 577  721  722  1   
 578  722  723  1   
 579  722  724  1   
 580  722  725  1   
 581  726  727  1   
 582  727  728  1   
 583  727  729  1   
 584  727  730  1   
 585  731  732  1   
 586  732  733  1   
 587  732  734  1   
 588  732  735  1   
 589  736  737  1   
 590  737  738  1   
 591  737  739  1   
 592  737  740  1   
 593  741  742  1   
 594  742  743  1   
 595  742  744  1   
 596  742  745  1   
 597  746  747  1   
 598  747  748  1   
 599  747  749  1   
 600  747  750  1   
 601  751  752  1   
 602  752  753  1   
 603  752  754  1   
 604  752  755  1   
 605  756  757  1   
 606  757  758  1   
 607  757  759  1   
 608  757  760  1   
 609  761  762  1   
 610  762  763  1   
 611  762  764  1   
 612  762  765  1   
 613  766  767  1   
 614  767  768  1   
 615  767  769  1   
 616  767  770  1   
 617  771  772  1   
 618  772  773  1   
 619  772  774  1   
 620  772  775  1   
 621  776  777  1   
 622  777  778  1   
 623  777  779  1   
 624  777  780  1   
 625  781  782  1   
 626  782  783  1   
 627  782  784  1   
 628  782  785  1   
 629  786  787  1   
 630  787  788  1   
 631  787  789  1   
 632  787  790  1   
 633  791  792  1   
 634  792  793  1   
 635  792  794  1   
 636  792  795  1   
 637  796  797  1   
 638  797  798  1   
 639  797  799  1   
 640  797  800  1   
 641  801  802  1   
 642  802  803  1   
 643  802  804  1   
 644  802  805  1   
 645  806  807  1   
 646  807  808  1   
 647  807  809  1   
 648  807  810  1   
 649  811  812  1   
 650  812  813  1   
 651  812  814  1   
 652  812  815  1   
 653  816  817  1   
 654  817  818  1   
 655  817  819  1   
 656  817  820  1   
 657  821  822  1   
 658  822  823  1   
 659  822  824  1   
 660  822  825  1   
 661  826  827  1   
 662  827  828  1   
 663  827  829  1   
 664  827  830  1   
 665  831  832  1   
 666  832  833  1   
 667  832  834  1   
 668  832  835  1   
 669  836  837  1   
 670  837  838  1   
 671  837  839  1   
 672  837  840  1   
 673  841  842  1   
 674  842  843  1   
 675  842  844  1   
 676  842  845  1   
 677  846  847  1   
 678  847  848  1   
 679  847  849  1   
 680  847  850  1   
 681  851  852  1   
 682  852  853  1   
 683  852  854  1   
 684  852  855  1   
 685  856  857  1   
 686  857  858  1   
 687  857  859  1   
 688  857  860  1   
 689  861  862  1   
 690  862  863  1   
 691  862  864  1   
 692  862  865  1   
 693  866  867  1   
 694  867  868  1   
 695  867  869  1   
 696  867  870  1   
 697  871  872  1   
 698  872  873  1   
 699  872  874  1   
 700  872  875  1   
 701  876  877  1   
 702  877  878  1   
 703  877  879  1   
 704  877  880  1   
 705  881  882  1   
 706  882  883  1   
 707  882  884  1   
 708  882  885  1   
 709  886  887  1   
 710  887  888  1   
 711  887  889  1   
 712  887  890  1   
 713  891  892  1   
 714  892  893  1   
 715  892  894  1   
 716  892  895  1   
 717  896  897  1   
 718  897  898  1   
 719  897  899  1   
 720  897  900  1   
 721  901  902  1   
 722  902  903  1   
 723  902  904  1   
 724  902  905  1   
 725  906  907  1   
 726  907  908  1   
 727  907  909  1   
 728  907  910  1   
 729  911  912  1   
 730  912  913  1   
 731  912  914  1   
 732  912  915  1   
 733  916  917  1   
 734  917  918  1   
 735  917  919  1   
 736  917  920  1   
 737  921  922  1   
 738  922  923  1   
 739  922  924  1   
 740  922  925  1   
 741  926  927  1   
 742  927  928  1   
 743  927  929  1   
 744  927  930  1   
 745  931  932  1   
 746  932  933  1   
 747  932  934  1   
 748  932  935  1   
 749  936  937  1   
 750  937  938  1   
 751  937  939  1   
 752  937  940  1   
 753  941  942  1   
 754  942  943  1   
 755  942  944  1   
 756  942  945  1   
 757  946  947  1   
 758  947  948  1   
 759  947  949  1   
 760  947  950  1   
 761  951  952  1   
 762  952  953  1   
 763  952  954  1   
 764  952  955  1   
 765  956  957  1   
 766  957  958  1   
 767  957  959  1   
 768  957  960  1   
 769  961  962  1   
 770  962  963  1   
 771  962  964  1   
 772  962  965  1   
 773  966  967  1   
 774  967  968  1   
 775  967  969  1   
 776  967  970  1   
 777  971  972  1   
 778  972  973  1   
 779  972  974  1   
 780  972  975  1   
 781  976  977  1   
 782  977  978  1   
 783  977  979  1   
 784  977  980  1   
 785  981  982  1   
 786  982  983  1   
 787  982  984  1   
 788  982  985  1   
 789  986  987  1   
 790  987  988  1   
 791  987  989  1   
 792  987  990  1   
 793  991  992  1   
 794  992  993  1   
 795  992  994  1   
 796  992  995  1   
 797  996  997  1   
 798  997  998  1   
 799  997  999  1   
 800  997 1000  1   
 801 1001 1002  1   
 802 1002 1003  1   
 803 1002 1004  1   
 804 1002 1005  1   
 805 1006 1007  1   
 806 1007 1008  1   
 807 1007 1009  1   
 808 1007 1010  1   
 809 1011 1012  1   
 810 1012 1013  1   
 811 1012 1014  1   
 812 1012 1015  1   
 813 1016 1017  1   
 814 1017 1018  1   
 815 1017 1019  1   
 816 1017 1020  1   
 817 1021 1022  1   
 818 1022 1023  1   
 819 1022 1024  1   
 820 1022 1025  1   
 821 1026 1027  1   
 822 1027 1028  1   
 823 1027 1029  1   
 824 1027 1030  1   
 825 1031 1032  1   
 826 1032 1033  1   
 827 1032 1034  1   
 828 1032 1035  1   
 829 1036 1037  1   
 830 1037 1038  1   
 831 1037 1039  1   
 832 1037 1040  1   
 833 1041 1042  1   
 834 1042 1043  1   
 835 1042 1044  1   
 836 1042 1045  1   
 837 1046 1047  1   
 838 1047 1048  1   
 839 1047 1049  1   
 840 1047 1050  1   
 841 1051 1052  1   
 842 1052 1053  1   
 843 1052 1054  1   
 844 1052 1055  1   
 845 1056 1057  1   
 846 1057 1058  1   
 847 1057 1059  1   
 848 1057 1060  1   
 849 1061 1062  1   
 850 1062 1063  1   
 851 1062 1064  1   
 852 1062 1065  1   
 853 1066 1067  1   
 854 1067 1068  1   
 855 1067 1069  1   
 856 1067 1070  1   
 857 1071 1072  1   
 858 1072 1073  1   
 859 1072 1074  1   
 860 1072 1075  1   
 861 1076 1077  1   
 862 1077 1078  1   
 863 1077 1079  1   
 864 1077 1080  1   
 865 1081 1082  1   
 866 1082 1083  1   
 867 1082 1084  1   
 868 1082 1085  1   
 869 1086 1087  1   
 870 1087 1088  1   
 871 1087 1089  1   
 872 1087 1090  1   
 873 1091 1092  1   
 874 1092 1093  1   
 875 1092 1094  1   
 876 1092 1095  1   
 877 1096 1097  1   
 878 1097 1098  1   
 879 1097 1099  1   
 880 1097 1100  1   
 881 1101 1102  1   
 882 1102 1103  1   
 883 1102 1104  1   
 884 1102 1105  1   
 885 1106 1107  1   
 886 1107 1108  1   
 887 1107 1109  1   
 888 1107 1110  1   
 889 1111 1112  1   
 890 1112 1113  1   
 891 1112 1114  1   
 892 1112 1115  1   
 893 1116 1117  1   
 894 1117 1118  1   
 895 1117 1119  1   
 896 1117 1120  1   
 897 1121 1122  1   
 898 1122 1123  1   
 899 1122 1124  1   
 900 1122 1125  1   
 901 1126 1127  1   
 902 1127 1128  1   
 903 1127 1129  1   
 904 1127 1130  1   
 905 1131 1132  1   
 906 1132 1133  1   
 907 1132 1134  1   
 908 1132 1135  1   
 909 1136 1137  1   
 910 1137 1138  1   
 911 1137 1139  1   
 912 1137 1140  1   
 913 1141 1142  1   
 914 1142 1143  1   
 915 1142 1144  1   
 916 1142 1145  1   
 917 1146 1147  1   
 918 1147 1148  1   
 919 1147 1149  1   
 920 1147 1150  1   
 921 1151 1152  1   
 922 1152 1153  1   
 923 1152 1154  1   
 924 1152 1155  1   
 925 1156 1157  1   
 926 1157 1158  1   
 927 1157 1159  1   
 928 1157 1160  1   
 929 1161 1162  1   
 930 1162 1163  1   
 931 1162 1164  1   
 932 1162 1165  1   
 933 1166 1167  1   
 934 1167 1168  1   
 935 1167 1169  1   
 936 1167 1170  1   
 937 1171 1172  1   
 938 1172 1173  1   
 939 1172 1174  1   
 940 1172 1175  1   
 941 1176 1177  1   
 942 1177 1178  1   
 943 1177 1179  1   
 944 1177 1180  1   
 945 1181 1182  1   
 946 1182 1183  1   
 947 1182 1184  1   
 948 1182 1185  1   
 949 1186 1187  1   
 950 1187 1188  1   
 951 1187 1189  1   
 952 1187 1190  1   
 953 1191 1192  1   
 954 1192 1193  1   
 955 1192 1194  1   
 956 1192 1195  1   
 957 1196 1197  1   
 958 1197 1198  1   
 959 1197 1199  1   
 960 1197 1200  1   
 961 1201 1202  1   
 962 1202 1203  1   
 963 1202 1204  1   
 964 1202 1205  1   
 965 1206 1207  1   
 966 1207 1208  1   
 967 1207 1209  1   
 968 1207 1210  1   
 969 1211 1212  1   
 970 1212 1213  1   
 971 1212 1214  1   
 972 1212 1215  1   
 973 1216 1217  1   
 974 1217 1218  1   
 975 1217 1219  1   
 976 1217 1220  1   
 977 1221 1222  1   
 978 1222 1223  1   
 979 1222 1224  1   
 980 1222 1225  1   
 981 1226 1227  1   
 982 1227 1228  1   
 983 1227 1229  1   
 984 1227 1230  1   
 985 1231 1232  1   
 986 1232 1233  1   
 987 1232 1234  1   
 988 1232 1235  1   
 989 1236 1237  1   
 990 1237 1238  1   
 991 1237 1239  1   
 992 1237 1240  1   
 993 1241 1242  1   
 994 1242 1243  1   
 995 1242 1244  1   
 996 1242 1245  1   
 997 1246 1247  1   
 998 1247 1248  1   
 999 1247 1249  1   
1000 1247 1250  1   
1001 1251 1252  1   
1002 1252 1253  1   
1003 1252 1254  1   
1004 1252 1255  1   
1005 1256 1257  1   
1006 1257 1258  1   
1007 1257 1259  1   
1008 1257 1260  1   
1009 1261 1262  1   
1010 1262 1263  1   
1011 1262 1264  1   
1012 1262 1265  1   
1013 1266 1267  1   
1014 1267 1268  1   
1015 1267 1269  1   
1016 1267 1270  1   
1017 1271 1272  1   
1018 1272 1273  1   
1019 1272 1274  1   
1020 1272 1275  1   
1021 1276 1277  1   
1022 1277 1278  1   
1023 1277 1279  1   
1024 1277 1280  1   
1025 1281 1282  1   
1026 1282 1283  1   
1027 1282 1284  1   
1028 1282 1285  1   
1029 1286 1287  1   
1030 1287 1288  1   
1031 1287 1289  1   
1032 1287 1290  1   
1033 1291 1292  1   
1034 1292 1293  1   
1035 1292 1294  1   
1036 1292 1295  1   
1037 1296 1297  1   
1038 1297 1298  1   
1039 1297 1299  1   
1040 1297 1300  1   
1041 1301 1302  1   
1042 1302 1303  1   
1043 1302 1304  1   
1044 1302 1305  1   
1045 1306 1307  1   
1046 1307 1308  1   
1047 1307 1309  1   
1048 1307 1310  1   
1049 1311 1312  1   
1050 1312 1313  1   
1051 1312 1314  1   
1052 1312 1315  1   
1053 1316 1317  1   
1054 1317 1318  1   
1055 1317 1319  1   
1056 1317 1320  1   
1057 1321 1322  1   
1058 1322 1323  1   
1059 1322 1324  1   
1060 1322 1325  1   
1061 1326 1327  1   
1062 1327 1328  1   
1063 1327 1329  1   
1064 1327 1330  1   
1065 1331 1332  1   
1066 1332 1333  1   
1067 1332 1334  1   
1068 1332 1335  1   
1069 1336 1337  1   
1070 1337 1338  1   
1071 1337 1339  1   
1072 1337 1340  1   
1073 1341 1342  1   
1074 1342 1343  1   
1075 1342 1344  1   
1076 1342 1345  1   
1077 1346 1347  1   
1078 1347 1348  1   
1079 1347 1349  1   
1080 1347 1350  1   
1081 1351 1352  1   
1082 1352 1353  1   
1083 1352 1354  1   
1084 1352 1355  1   
1085 1356 1357  1   
1086 1357 1358  1   
1087 1357 1359  1   
1088 1357 1360  1   
1089 1361 1362  1   
1090 1362 1363  1   
1091 1362 1364  1   
1092 1362 1365  1   
1093 1366 1367  1   
1094 1367 1368  1   
1095 1367 1369  1   
1096 1367 1370  1   
1097 1371 1372  1   
1098 1372 1373  1   
1099 1372 1374  1   
1100 1372 1375  1   
1101 1376 1377  1   
1102 1377 1378  1   
1103 1377 1379  1   
1104 1377 1380  1   
1105 1381 1382  1   
1106 1382 1383  1   
1107 1382 1384  1   
1108 1382 1385  1   
1109 1386 1387  1   
1110 1387 1388  1   
1111 1387 1389  1   
1112 1387 1390  1   
1113 1391 1392  1   
1114 1392 1393  1   
1115 1392 1394  1   
1116 1392 1395  1   
1117 1396 1397  1   
1118 1397 1398  1   
1119 1397 1399  1   
1120 1397 1400  1   
1121 1401 1402  1   
1122 1402 1403  1   
1123 1402 1404  1   
1124 1402 1405  1   
1125 1406 1407  1   
1126 1407 1408  1   
1127 1407 1409  1   
1128 1407 1410  1   
1129 1411 1412  1   
1130 1412 1413  1   
1131 1412 1414  1   
1132 1412 1415  1   
1133 1416 1417  1   
1134 1417 1418  1   
1135 1417 1419  1   
1136 1417 1420  1   
1137 1421 1422  1   
1138 1422 1423  1   
1139 1422 1424  1   
1140 1422 1425  1   
1141 1426 1427  1   
1142 1427 1428  1   
1143 1427 1429  1   
1144 1427 1430  1   
1145 1431 1432  1   
1146 1432 1433  1   
1147 1432 1434  1   
1148 1432 1435  1   
1149 1436 1437  1   
1150 1437 1438  1   
1151 1437 1439  1   
1152 1437 1440  1   
1153 1441 1442  1   
1154 1442 1443  1   
1155 1442 1444  1   
1156 1442 1445  1   
1157 1446 1447  1   
1158 1447 1448  1   
1159 1447 1449  1   
1160 1447 1450  1   
1161 1451 1452  1   
1162 1452 1453  1   
1163 1452 1454  1   
1164 1452 1455  1   
1165 1456 1457  1   
1166 1457 1458  1   
1167 1457 1459  1   
1168 1457 1460  1   
1169 1461 1462  1   
1170 1462 1463  1   
1171 1462 1464  1   
1172 1462 1465  1   
1173 1466 1467  1   
1174 1467 1468  1   
1175 1467 1469  1   
1176 1467 1470  1   
1177 1471 1472  1   
1178 1472 1473  1   
1179 1472 1474  1   
1180 1472 1475  1   
1181 1476 1477  1   
1182 1477 1478  1   
1183 1477 1479  1   
1184 1477 1480  1   
1185 1481 1482  1   
1186 1482 1483  1   
1187 1482 1484  1   
1188 1482 1485  1   
1189 1486 1487  1   
1190 1487 1488  1   
1191 1487 1489  1   
1192 1487 1490  1   
1193 1491 1492  1   
1194 1492 1493  1   
1195 1492 1494  1   
1196 1492 1495  1   
1197 1496 1497  1   
1198 1497 1498  1   
1199 1497 1499  1   
1200 1497 1500  1   
1201 1501 1502  1   
1202 1502 1503  1   
1203 1502 1504  1   
1204 1502 1505  1   
1205 1506 1507  1   
1206 1507 1508  1   
1207 1507 1509  1   
1208 1507 1510  1   
1209 1511 1512  1   
1210 1512 1513  1   
1211 1512 1514  1   
1212 1512 1515  1   
1213 1516 1517  1   
1214 1517 1518  1   
1215 1517 1519  1   
1216 1517 1520  1   
1217 1521 1522  1   
1218 1522 1523  1   
1219 1522 1524  1   
1220 1522 1525  1   
1221 1526 1527  1   
1222 1527 1528  1   
1223 1527 1529  1   
1224 1527 1530  1   
1225 1531 1532  1   
1226 1532 1533  1   
1227 1532 1534  1   
1228 1532 1535  1   
1229 1536 1537  1   
1230 1537 1538  1   
1231 1537 1539  1   
1232 1537 1540  1   
1233 1541 1542  1   
1234 1542 1543  1   
1235 1542 1544  1   
1236 1542 1545  1   
1237 1546 1547  1   
1238 1547 1548  1   
1239 1547 1549  1   
1240 1547 1550  1   
1241 1551 1552  1   
1242 1552 1553  1   
1243 1552 1554  1   
1244 1552 1555  1   
1245 1556 1557  1   
1246 1557 1558  1   
1247 1557 1559  1   
1248 1557 1560  1   
1249 1561 1562  1   
1250 1562 1563  1   
1251 1562 1564  1   
1252 1562 1565  1   
1253 1566 1567  1   
1254 1567 1568  1   
1255 1567 1569  1   
1256 1567 1570  1   
1257 1571 1572  1   
1258 1572 1573  1   
1259 1572 1574  1   
1260 1572 1575  1   
1261 1576 1577  1   
1262 1577 1578  1   
1263 1577 1579  1   
1264 1577 1580  1   
1265 1581 1582  1   
1266 1582 1583  1   
1267 1582 1584  1   
1268 1582 1585  1   
1269 1586 1587  1   
1270 1587 1588  1   
1271 1587 1589  1   
1272 1587 1590  1   
1273 1591 1592  1   
1274 1592 1593  1   
1275 1592 1594  1   
1276 1592 1595  1   
1277 1596 1597  1   
1278 1597 1598  1   
1279 1597 1599  1   
1280 1597 1600  1   
1281 1601 1602  1   
1282 1602 1603  1   
1283 1602 1604  1   
1284 1602 1605  1   
1285 1606 1607  1   
1286 1607 1608  1   
1287 1607 1609  1   
1288 1607 1610  1   
1289 1611 1612  1   
1290 1612 1613  1   
1291 1612 1614  1   
1292 1612 1615  1   
1293 1616 1617  1   
1294 1617 1618  1   
1295 1617 1619  1   
1296 1617 1620  1   
1297 1621 1622  1   
1298 1622 1623  1   
1299 1622 1624  1   
1300 1622 1625  1   
1301 1626 1627  1   
1302 1627 1628  1   
1303 1627 1629  1   
1304 1627 1630  1   
1305 1631 1632  1   
1306 1632 1633  1   
1307 1632 1634  1   
1308 1632 1635  1   
1309 1636 1637  1   
1310 1637 1638  1   
1311 1637 1639  1   
1312 1637 1640  1   
1313 1641 1642  1   
1314 1642 1643  1   
1315 1642 1644  1   
1316 1642 1645  1   
1317 1646 1647  1   
1318 1647 1648  1   
1319 1647 1649  1   
1320 1647 1650  1   
1321 1651 1652  1   
1322 1652 1653  1   
1323 1652 1654  1   
1324 1652 1655  1   
1325 1656 1657  1   
1326 1657 1658  1   
1327 1657 1659  1   
1328 1657 1660  1   
1329 1661 1662  1   
1330 1662 1663  1   
1331 1662 1664  1   
1332 1662 1665  1   
1333 1666 1667  1   
1334 1667 1668  1   
1335 1667 1669  1   
1336 1667 1670  1   
1337 1671 1672  1   
1338 1672 1673  1   
1339 1672 1674  1   
1340 1672 1675  1   
1341 1676 1677  1   
1342 1677 1678  1   
1343 1677 1679  1   
1344 1677 1680  1   
1345 1681 1682  1   
1346 1682 1683  1   
1347 1682 1684  1   
1348 1682 1685  1   
1349 1686 1687  1   
1350 1687 1688  1   
1351 1687 1689  1   
1352 1687 1690  1   
1353 1691 1692  1   
1354 1692 1693  1   
1355 1692 1694  1   
1356 1692 1695  1   
1357 1696 1697  1   
1358 1697 1698  1   
1359 1697 1699  1   
1360 1697 1700  1   
1361 1701 1702  1   
1362 1702 1703  1   
1363 1702 1704  1   
1364 1702 1705  1   
1365 1706 1707  1   
1366 1707 1708  1   
1367 1707 1709  1   
1368 1707 1710  1   
1369 1711 1712  1   
1370 1712 1713  1   
1371 1712 1714  1   
1372 1712 1715  1   
1373 1716 1717  1   
1374 1717 1718  1   
1375 1717 1719  1   
1376 1717 1720  1   
1377 1721 1722  1   
1378 1722 1723  1   
1379 1722 1724  1   
1380 1722 1725  1   
1381 1726 1727  1   
1382 1727 1728  1   
1383 1727 1729  1   
1384 1727 1730  1   
1385 1731 1732  1   
1386 1732 1733  1   
1387 1732 1734  1   
1388 1732 1735  1   
1389 1736 1737  1   
1390 1737 1738  1   
1391 1737 1739  1   
1392 1737 1740  1   
1393 1741 1742  1   
1394 1742 1743  1   
1395 1742 1744  1   
1396 1742 1745  1   
1397 1746 1747  1   
1398 1747 1748  1   
1399 1747 1749  1   
1400 1747 1750  1   
1401 1751 1752  1   
1402 1752 1753  1   
1403 1752 1754  1   
1404 1752 1755  1   
1405 1756 1757  1   
1406 1757 1758  1   
1407 1757 1759  1   
1408 1757 1760  1   
1409 1761 1762  1   
1410 1762 1763  1   
1411 1762 1764  1   
1412 1762 1765  1   
1413 1766 1767  1   
1414 1767 1768  1   
1415 1767 1769  1   
1416 1767 1770  1   
1417 1771 1772  1   
1418 1772 1773  1   
1419 1772 1774  1   
1420 1772 1775  1   
1421 1776 1777  1   
1422 1777 1778  1   
1423 1777 1779  1   
1424 1777 1780  1   
1425 1781 1782  1   
1426 1782 1783  1   
1427 1782 1784  1   
1428 1782 1785  1   
1429 1786 1787  1   
1430 1787 1788  1   
1431 1787 1789  1   
1432 1787 1790  1   
1433 1791 1792  1   
1434 1792 1793  1   
1435 1792 1794  1   
1436 1792 1795  1   
1437 1796 1797  1   
1438 1797 1798  1   
1439 1797 1799  1   
1440 1797 1800  1   
1441 1801 1802  1   
1442 1802 1803  1   
1443 1802 1804  1   
1444 1802 1805  1   
1445 1806 1807  1   
1446 1807 1808  1   
1447 1807 1809  1   
1448 1807 1810  1   
1449 1811 1812  1   
1450 1812 1813  1   
1451 1812 1814  1   
1452 1812 1815  1   
1453 1816 1817  1   
1454 1817 1818  1   
1455 1817 1819  1   
1456 1817 1820  1   
1457 1821 1822  1   
1458 1822 1823  1   
1459 1822 1824  1   
1460 1822 1825  1   
1461 1826 1827  1   
1462 1827 1828  1   
1463 1827 1829  1   
1464 1827 1830  1   
1465 1831 1832  1   
1466 1832 1833  1   
1467 1832 1834  1   
1468 1832 1835  1   
1469 1836 1837  1   
1470 1837 1838  1   
1471 1837 1839  1   
1472 1837 1840  1   
1473 1841 1842  1   
1474 1842 1843  1   
1475 1842 1844  1   
1476 1842 1845  1   
1477 1846 1847  1   
1478 1847 1848  1   
1479 1847 1849  1   
1480 1847 1850  1   
1481 1851 1852  1   
1482 1852 1853  1   
1483 1852 1854  1   
1484 1852 1855  1   
1485 1856 1857  1   
1486 1857 1858  1   
1487 1857 1859  1   
1488 1857 1860  1   
1489 1861 1862  1   
1490 1862 1863  1   
1491 1862 1864  1   
1492 1862 1865  1   
1493 1866 1867  1   
1494 1867 1868  1   
1495 1867 1869  1   
1496 1867 1870  1   
1497 1871 1872  1   
1498 1872 1873  1   
1499 1872 1874  1   
1500 1872 1875  1   
1501 1876 1877  1   
1502 1877 1878  1   
1503 1877 1879  1   
1504 1877 1880  1   
1505 1881 1882  1   
1506 1882 1883  1   
1507 1882 1884  1   
1508 1882 1885  1   
1509 1886 1887  1   
1510 1887 1888  1   
1511 1887 1889  1   
1512 1887 1890  1   
1513 1891 1892  1   
1514 1892 1893  1   
1515 1892 1894  1   
1516 1892 1895  1   
1517 1896 1897  1   
1518 1897 1898  1   
1519 1897 1899  1   
1520 1897 1900  1   
1521 1901 1902  1   
1522 1902 1903  1   
1523 1902 1904  1   
1524 1902 1905  1   
1525 1906 1907  1   
1526 1907 1908  1   
1527 1907 1909  1   
1528 1907 1910  1   
1529 1911 1912  1   
1530 1912 1913  1   
1531 1912 1914  1   
1532 1912 1915  1   
1533 1916 1917  1   
1534 1917 1918  1   
1535 1917 1919  1   
1536 1917 1920  1   
1537 1921 1922  1   
1538 1922 1923  1   
1539 1922 1924  1   
1540 1922 1925  1   
1541 1926 1927  1   
1542 1927 1928  1   
1543 1927 1929  1   
1544 1927 1930  1   
1545 1931 1932  1   
1546 1932 1933  1   
1547 1932 1934  1   
1548 1932 1935  1   
1549 1936 1937  1   
1550 1937 1938  1   
1551 1937 1939  1   
1552 1937 1940  1   
1553 1941 1942  1   
1554 1942 1943  1   
1555 1942 1944  1   
1556 1942 1945  1   
1557 1946 1947  1   
1558 1947 1948  1   
1559 1947 1949  1   
1560 1947 1950  1   
1561 1951 1952  1   
1562 1952 1953  1   
1563 1952 1954  1   
1564 1952 1955  1   
1565 1956 1957  1   
1566 1957 1958  1   
1567 1957 1959  1   
1568 1957 1960  1   
1569 1961 1962  1   
1570 1962 1963  1   
1571 1962 1964  1   
1572 1962 1965  1   
1573 1966 1967  1   
1574 1967 1968  1   
1575 1967 1969  1   
1576 1967 1970  1   
1577 1971 1972  1   
1578 1972 1973  1   
1579 1972 1974  1   
1580 1972 1975  1   
1581 1976 1977  1   
1582 1977 1978  1   
1583 1977 1979  1   
1584 1977 1980  1   
1585 1981 1982  1   
1586 1982 1983  1   
1587 1982 1984  1   
1588 1982 1985  1   
1589 1986 1987  1   
1590 1987 1988  1   
1591 1987 1989  1   
1592 1987 1990  1   
1593 1991 1992  1   
1594 1992 1993  1   
1595 1992 1994  1   
1596 1992 1995  1   
1597 1996 1997  1   
1598 1997 1998  1   
1599 1997 1999  1   
1600 1997 2000  1   
1601 2001 2002  1   
1602 2002 2003  1   
1603 2002 2004  1   
1604 2002 2005  1   
1605 2006 2007  1   
1606 2007 2008  1   
1607 2007 2009  1   
1608 2007 2010  1   
1609 2011 2012  1   
1610 2012 2013  1   
1611 2012 2014  1   
1612 2012 2015  1   
1613 2016 2017  1   
1614 2017 2018  1   
1615 2017 2019  1   
1616 2017 2020  1   
1617 2021 2022  1   
1618 2022 2023  1   
1619 2022 2024  1   
1620 2022 2025  1   
1621 2026 2027  1   
1622 2027 2028  1   
1623 2027 2029  1   
1624 2027 2030  1   
1625 2031 2032  1   
1626 2032 2033  1   
1627 2032 2034  1   
1628 2032 2035  1   
1629 2036 2037  1   
1630 2037 2038  1   
1631 2037 2039  1   
1632 2037 2040  1   
1633 2041 2042  1   
1634 2042 2043  1   
1635 2042 2044  1   
1636 2042 2045  1   
1637 2046 2047  1   
1638 2047 2048  1   
1639 2047 2049  1   
1640 2047 2050  1   
1641 2051 2052  1   
1642 2052 2053  1   
1643 2052 2054  1   
1644 2052 2055  1   
1645 2056 2057  1   
1646 2057 2058  1   
1647 2057 2059  1   
1648 2057 2060  1   
1649 2061 2062  1   
1650 2062 2063  1   
1651 2062 2064  1   
1652 2062 2065  1   
1653 2066 2067  1   
1654 2067 2068  1   
1655 2067 2069  1   
1656 2067 2070  1   
1657 2071 2072  1   
1658 2072 2073  1   
1659 2072 2074  1   
1660 2072 2075  1   
1661 2076 2077  1   
1662 2077 2078  1   
1663 2077 2079  1   
1664 2077 2080  1   
1665 2081 2082  1   
1666 2082 2083  1   
1667 2082 2084  1   
1668 2082 2085  1   
1669 2086 2087  1   
1670 2087 2088  1   
1671 2087 2089  1   
1672 2087 2090  1   
1673 2091 2092  1   
1674 2092 2093  1   
1675 2092 2094  1   
1676 2092 2095  1   
1677 2096 2097  1   
1678 2097 2098  1   
1679 2097 2099  1   
1680 2097 2100  1   
1681 2101 2102  1   
1682 2102 2103  1   
1683 2102 2104  1   
1684 2102 2105  1   
1685 2106 2107  1   
1686 2107 2108  1   
1687 2107 2109  1   
1688 2107 2110  1   
1689 2111 2112  1   
1690 2112 2113  1   
1691 2112 2114  1   
1692 2112 2115  1   
1693 2116 2117  1   
1694 2117 2118  1   
1695 2117 2119  1   
1696 2117 2120  1   
1697 2121 2122  1   
1698 2122 2123  1   
1699 2122 2124  1   
1700 2122 2125  1   
1701 2126 2127  1   
1702 2127 2128  1   
1703 2127 2129  1   
1704 2127 2130  1   
1705 2131 2132  1   
1706 2132 2133  1   
1707 2132 2134  1   
1708 2132 2135  1   
1709 2136 2137  1   
1710 2137 2138  1   
1711 2137 2139  1   
1712 2137 2140  1   
1713 2141 2142  1   
1714 2142 2143  1   
1715 2142 2144  1   
1716 2142 2145  1   
1717 2146 2147  1   
1718 2147 2148  1   
1719 2147 2149  1   
1720 2147 2150  1   
1721 2151 2152  1   
1722 2152 2153  1   
1723 2152 2154  1   
1724 2152 2155  1   
1725 2156 2157  1   
1726 2157 2158  1   
1727 2157 2159  1   
1728 2157 2160  1   
1729 2161 2162  1   
1730 2162 2163  1   
1731 2162 2164  1   
1732 2162 2165  1   
1733 2166 2167  1   
1734 2167 2168  1   
1735 2167 2169  1   
1736 2167 2170  1   
1737 2171 2172  1   
1738 2172 2173  1   
1739 2172 2174  1   
1740 2172 2175  1   
1741 2176 2177  1   
1742 2177 2178  1   
1743 2177 2179  1   
1744 2177 2180  1   
1745 2181 2182  1   
1746 2182 2183  1   
1747 2182 2184  1   
1748 2182 2185  1   
1749 2186 2187  1   
1750 2187 2188  1   
1751 2187 2189  1   
1752 2187 2190  1   
1753 2191 2192  1   
1754 2192 2193  1   
1755 2192 2194  1   
1756 2192 2195  1   
1757 2196 2197  1   
1758 2197 2198  1   
1759 2197 2199  1   
1760 2197 2200  1   
1761 2201 2202  1   
1762 2202 2203  1   
1763 2202 2204  1   
1764 2202 2205  1   
1765 2206 2207  1   
1766 2207 2208  1   
1767 2207 2209  1   
1768 2207 2210  1   
1769 2211 2212  1   
1770 2212 2213  1   
1771 2212 2214  1   
1772 2212 2215  1   
1773 2216 2217  1   
1774 2217 2218  1   
1775 2217 2219  1   
1776 2217 2220  1   
1777 2221 2222  1   
1778 2222 2223  1   
1779 2222 2224  1   
1780 2222 2225  1   
1781 2226 2227  1   
1782 2227 2228  1   
1783 2227 2229  1   
1784 2227 2230  1   
1785 2231 2232  1   
1786 2232 2233  1   
1787 2232 2234  1   
1788 2232 2235  1   
1789 2236 2237  1   
1790 2237 2238  1   
1791 2237 2239  1   
1792 2237 2240  1   
1793 2241 2242  1   
1794 2242 2243  1   
1795 2242 2244  1   
1796 2242 2245  1   
1797 2246 2247  1   
1798 2247 2248  1   
1799 2247 2249  1   
1800 2247 2250  1   
1801 2251 2252  1   
1802 2252 2253  1   
1803 2252 2254  1   
1804 2252 2255  1   
1805 2256 2257  1   
1806 2257 2258  1   
1807 2257 2259  1   
1808 2257 2260  1   
1809 2261 2262  1   
1810 2262 2263  1   
1811 2262 2264  1   
1812 2262 2265  1   
1813 2266 2267  1   
1814 2267 2268  1   
1815 2267 2269  1   
1816 2267 2270  1   
1817 2271 2272  1   
1818 2272 2273  1   
1819 2272 2274  1   
1820 2272 2275  1   
1821 2276 2277  1   
1822 2277 2278  1   
1823 2277 2279  1   
1824 2277 2280  1   
1825 2281 2282  1   
1826 2282 2283  1   
1827 2282 2284  1   
1828 2282 2285  1   
1829 2286 2287  1   
1830 2287 2288  1   
1831 2287 2289  1   
1832 2287 2290  1   
1833 2291 2292  1   
1834 2292 2293  1   
1835 2292 2294  1   
1836 2292 2295  1   
1837 2296 2297  1   
1838 2297 2298  1   
1839 2297 2299  1   
1840 2297 2300  1   
1841 2301 2302  1   
1842 2302 2303  1   
1843 2302 2304  1   
1844 2302 2305  1   
1845 2306 2307  1   
1846 2307 2308  1   
1847 2307 2309  1   
1848 2307 2310  1   
1849 2311 2312  1   
1850 2312 2313  1   
1851 2312 2314  1   
1852 2312 2315  1   
1853 2316 2317  1   
1854 2317 2318  1   
1855 2317 2319  1   
1856 2317 2320  1   
1857 2321 2322  1   
1858 2322 2323  1   
1859 2322 2324  1   
1860 2322 2325  1   
1861 2326 2327  1   
1862 2327 2328  1   
1863 2327 2329  1   
1864 2327 2330  1   
1865 2331 2332  1   
1866 2332 2333  1   
1867 2332 2334  1   
1868 2332 2335  1   
1869 2336 2337  1   
1870 2337 2338  1   
1871 2337 2339  1   
1872 2337 2340  1   
1873 2341 2342  1   
1874 2342 2343  1   
1875 2342 2344  1   
1876 2342 2345  1   
1877 2346 2347  1   
1878 2347 2348  1   
1879 2347 2349  1   
1880 2347 2350  1   
1881 2351 2352  1   
1882 2352 2353  1   
1883 2352 2354  1   
1884 2352 2355  1   
1885 2356 2357  1   
1886 2357 2358  1   
1887 2357 2359  1   
1888 2357 2360  1   
1889 2361 2362  1   
1890 2362 2363  1   
1891 2362 2364  1   
1892 2362 2365  1   
1893 2366 2367  1   
1894 2367 2368  1   
1895 2367 2369  1   
1896 2367 2370  1   
1897 2371 2372  1   
1898 2372 2373  1   
1899 2372 2374  1   
1900 2372 2375  1   
1901 2376 2377  1   
1902 2377 2378  1   
1903 2377 2379  1   
1904 2377 2380  1   
1905 2381 2382  1   
1906 2382 2383  1   
1907 2382 2384  1   
1908 2382 2385  1   
1909 2386 2387  1   
1910 2387 2388  1   
1911 2387 2389  1   
1912 2387 2390  1   
1913 2391 2392  1   
1914 2392 2393  1   
1915 2392 2394  1   
1916 2392 2395  1   
1917 2396 2397  1   
1918 2397 2398  1   
1919 2397 2399  1   
1920 2397 2400  1   
1921 2401 2402  1   
1922 2402 2403  1   
1923 2402 2404  1   
1924 2402 2405  1   
1925 2406 2407  1   
1926 2407 2408  1   
1927 2407 2409  1   
1928 2407 2410  1   
1929 2411 2412  1   
1930 2412 2413  1   
1931 2412 2414  1   
1932 2412 2415  1   
1933 2416 2417  1   
1934 2417 2418  1   
1935 2417 2419  1   
1936 2417 2420  1   
1937 2421 2422  1   
1938 2422 2423  1   
1939 2422 2424  1   
1940 2422 2425  1   
1941 2426 2427  1   
1942 2427 2428  1   
1943 2427 2429  1   
1944 2427 2430  1   
1945 2431 2432  1   
1946 2432 2433  1   
1947 2432 2434  1   
1948 2432 2435  1   
1949 2436 2437  1   
1950 2437 2438  1   
1951 2437 2439  1   
1952 2437 2440  1   
1953 2441 2442  1   
1954 2442 2443  1   
1955 2442 2444  1   
1956 2442 2445  1   
1957 2446 2447  1   
1958 2447 2448  1   
1959 2447 2449  1   
1960 2447 2450  1   
1961 2451 2452  1   
1962 2452 2453  1   
1963 2452 2454  1   
1964 2452 2455  1   
1965 2456 2457  1   
1966 2457 2458  1   
1967 2457 2459  1   
1968 2457 2460  1   
1969 2461 2462  1   
1970 2462 2463  1   
1971 2462 2464  1   
1972 2462 2465  1   
1973 2466 2467  1   
1974 2467 2468  1   
1975 2467 2469  1   
1976 2467 2470  1   
1977 2471 2472  1   
1978 2472 2473  1   
1979 2472 2474  1   
1980 2472 2475  1   
1981 2476 2477  1   
1982 2477 2478  1   
1983 2477 2479  1   
1984 2477 2480  1   
1985 2481 2482  1   
1986 2482 2483  1   
1987 2482 2484  1   
1988 2482 2485  1   
1989 2486 2487  1   
1990 2487 2488  1   
1991 2487 2489  1   
1992 2487 2490  1   
1993 2491 2492  1   
1994 2492 2493  1   
1995 2492 2494  1   
1996 2492 2495  1   
1997 2496 2497  1   
1998 2497 2498  1   
1999 2497 2499  1   
2000 2497 2500  1   
2001 2501 2502  1   
2002 2502 2503  1   
2003 2502 2504  1   
2004 2502 2505  1   
2005 2506 2507  1   
2006 2507 2508  1   
2007 2507 2509  1   
2008 2507 2510  1   
2009 2511 2512  1   
2010 2512 2513  1   
2011 2512 2514  1   
2012 2512 2515  1   
2013 2516 2517  1   
2014 2517 2518  1   
2015 2517 2519  1   
2016 2517 2520  1   
2017 2521 2522  1   
2018 2522 2523  1   
2019 2522 2524  1   
2020 2522 2525  1   
2021 2526 2527  1   
2022 2527 2528  1   
2023 2527 2529  1   
2024 2527 2530  1   
2025 2531 2532  1   
2026 2532 2533  1   
2027 2532 2534  1   
2028 2532 2535  1   
2029 2536 2537  1   
2030 2537 2538  1   
2031 2537 2539  1   
2032 2537 2540  1   
2033 2541 2542  1   
2034 2542 2543  1   
2035 2542 2544  1   
2036 2542 2545  1   
2037 2546 2547  1   
2038 2547 2548  1   
2039 2547 2549  1   
2040 2547 2550  1   
2041 2551 2552  1   
2042 2552 2553  1   
2043 2552 2554  1   
2044 2552 2555  1   
2045 2556 2557  1   
2046 2557 2558  1   
2047 2557 2559  1   
2048 2557 2560  1   
2049 2561 2562  1   
2050 2562 2563  1   
2051 2562 2564  1   
2052 2562 2565  1   
2053 2566 2567  1   
2054 2567 2568  1   
2055 2567 2569  1   
2056 2567 2570  1   
2057 2571 2572  1   
2058 2572 2573  1   
2059 2572 2574  1   
2060 2572 2575  1   
2061 2576 2577  1   
2062 2577 2578  1   
2063 2577 2579  1   
2064 2577 2580  1   
2065 2581 2582  1   
2066 2582 2583  1   
2067 2582 2584  1   
2068 2582 2585  1   
2069 2586 2587  1   
2070 2587 2588  1   
2071 2587 2589  1   
2072 2587 2590  1   
2073 2591 2592  1   
2074 2592 2593  1   
2075 2592 2594  1   
2076 2592 2595  1   
2077 2596 2597  1   
2078 2597 2598  1   
2079 2597 2599  1   
2080 2597 2600  1   
2081 2601 2602  1   
2082 2602 2603  1   
2083 2602 2604  1   
2084 2602 2605  1   
2085 2606 2607  1   
2086 2607 2608  1   
2087 2607 2609  1   
2088 2607 2610  1   
2089 2611 2612  1   
2090 2612 2613  1   
2091 2612 2614  1   
2092 2612 2615  1   
2093 2616 2617  1   
2094 2617 2618  1   
2095 2617 2619  1   
2096 2617 2620  1   
2097 2621 2622  1   
2098 2622 2623  1   
2099 2622 2624  1   
2100 2622 2625  1   
2101 2626 2627  1   
2102 2627 2628  1   
2103 2627 2629  1   
2104 2627 2630  1   
2105 2631 2632  1   
2106 2632 2633  1   
2107 2632 2634  1   
2108 2632 2635  1   
2109 2636 2637  1   
2110 2637 2638  1   
2111 2637 2639  1   
2112 2637 2640  1   
2113 2641 2642  1   
2114 2642 2643  1   
2115 2642 2644  1   
2116 2642 2645  1   
2117 2646 2647  1   
2118 2647 2648  1   
2119 2647 2649  1   
2120 2647 2650  1   
2121 2651 2652  1   
2122 2652 2653  1   
2123 2652 2654  1   
2124 2652 2655  1   
2125 2656 2657  1   
2126 2657 2658  1   
2127 2657 2659  1   
2128 2657 2660  1   
2129 2661 2662  1   
2130 2662 2663  1   
2131 2662 2664  1   
2132 2662 2665  1   
2133 2666 2667  1   
2134 2667 2668  1   
2135 2667 2669  1   
2136 2667 2670  1   
2137 2671 2672  1   
2138 2672 2673  1   
2139 2672 2674  1   
2140 2672 2675  1   
2141 2676 2677  1   
2142 2677 2678  1   
2143 2677 2679  1   
2144 2677 2680  1   
2145 2681 2682  1   
2146 2682 2683  1   
2147 2682 2684  1   
2148 2682 2685  1   
2149 2686 2687  1   
2150 2687 2688  1   
2151 2687 2689  1   
2152 2687 2690  1   
2153 2691 2692  1   
2154 2692 2693  1   
2155 2692 2694  1   
2156 2692 2695  1   
2157 2696 2697  1   
2158 2697 2698  1   
2159 2697 2699  1   
2160 2697 2700  1   
2161 2701 2702  1   
2162 2702 2703  1   
2163 2702 2704  1   
2164 2702 2705  1   
2165 2706 2707  1   
2166 2707 2708  1   
2167 2707 2709  1   
2168 2707 2710  1   
2169 2711 2712  1   
2170 2712 2713  1   
2171 2712 2714  1   
2172 2712 2715  1   
2173 2716 2717  1   
2174 2717 2718  1   
2175 2717 2719  1   
2176 2717 2720  1   
2177 2721 2722  1   
2178 2722 2723  1   
2179 2722 2724  1   
2180 2722 2725  1   
2181 2726 2727  1   
2182 2727 2728  1   
2183 2727 2729  1   
2184 2727 2730  1   
2185 2731 2732  1   
2186 2732 2733  1   
2187 2732 2734  1   
2188 2732 2735  1   
2189 2736 2737  1   
2190 2737 2738  1   
2191 2737 2739  1   
2192 2737 2740  1   
2193 2741 2742  1   
2194 2742 2743  1   
2195 2742 2744  1   
2196 2742 2745  1   
2197 2746 2747  1   
2198 2747 2748  1   
2199 2747 2749  1   
2200 2747 2750  1   
2201 2751 2752  1   
2202 2752 2753  1   
2203 2752 2754  1   
2204 2752 2755  1   
2205 2756 2757  1   
2206 2757 2758  1   
2207 2757 2759  1   
2208 2757 2760  1   
2209 2761 2762  1   
2210 2762 2763  1   
2211 2762 2764  1   
2212 2762 2765  1   
2213 2766 2767  1   
2214 2767 2768  1   
2215 2767 2769  1   
2216 2767 2770  1   
2217 2771 2772  1   
2218 2772 2773  1   
2219 2772 2774  1   
2220 2772 2775  1   
2221 2776 2777  1   
2222 2777 2778  1   
2223 2777 2779  1   
2224 2777 2780  1   
2225 2781 2782  1   
2226 2782 2783  1   
2227 2782 2784  1   
2228 2782 2785  1   
2229 2786 2787  1   
2230 2787 2788  1   
2231 2787 2789  1   
2232 2787 2790  1   
2233 2791 2792  1   
2234 2792 2793  1   
2235 2792 2794  1   
2236 2792 2795  1   
2237 2796 2797  1   
2238 2797 2798  1   
2239 2797 2799  1   
2240 2797 2800  1   
2241 2801 2802  1   
2242 2802 2803  1   
2243 2802 2804  1   
2244 2802 2805  1   
2245 2806 2807  1   
2246 2807 2808  1   
2247 2807 2809  1   
2248 2807 2810  1   
2249 2811 2812  1   
2250 2812 2813  1   
2251 2812 2814  1   
2252 2812 2815  1   
2253 2816 2817  1   
2254 2817 2818  1   
2255 2817 2819  1   
2256 2817 2820  1   
2257 2821 2822  1   
2258 2822 2823  1   
2259 2822 2824  1   
2260 2822 2825  1   
2261 2826 2827  1   
2262 2827 2828  1   
2263 2827 2829  1   
2264 2827 2830  1   
2265 2831 2832  1   
2266 2832 2833  1   
2267 2832 2834  1   
2268 2832 2835  1   
2269 2836 2837  1   
2270 2837 2838  1   
2271 2837 2839  1   
2272 2837 2840  1   
2273 2841 2842  1   
2274 2842 2843  1   
2275 2842 2844  1   
2276 2842 2845  1   
2277 2846 2847  1   
2278 2847 2848  1   
2279 2847 2849  1   
2280 2847 2850  1   
2281 2851 2852  1   
2282 2852 2853  1   
2283 2852 2854  1   
2284 2852 2855  1   
2285 2856 2857  1   
2286 2857 2858  1   
2287 2857 2859  1   
2288 2857 2860  1   
2289 2861 2862  1   
2290 2862 2863  1   
2291 2862 2864  1   
2292 2862 2865  1   
2293 2866 2867  1   
2294 2867 2868  1   
2295 2867 2869  1   
2296 2867 2870  1   
2297 2871 2872  1   
2298 2872 2873  1   
2299 2872 2874  1   
2300 2872 2875  1   
2301 2876 2877  1   
2302 2877 2878  1   
2303 2877 2879  1   
2304 2877 2880  1   
2305 2881 2882  1   
2306 2882 2883  1   
2307 2882 2884  1   
2308 2882 2885  1   
2309 2886 2887  1   
2310 2887 2888  1   
2311 2887 2889  1   
2312 2887 2890  1   
2313 2891 2892  1   
2314 2892 2893  1   
2315 2892 2894  1   
2316 2892 2895  1   
2317 2896 2897  1   
2318 2897 2898  1   
2319 2897 2899  1   
2320 2897 2900  1   
2321 2901 2902  1   
2322 2902 2903  1   
2323 2902 2904  1   
2324 2902 2905  1   
2325 2906 2907  1   
2326 2907 2908  1   
2327 2907 2909  1   
2328 2907 2910  1   
2329 2911 2912  1   
2330 2912 2913  1   
2331 2912 2914  1   
2332 2912 2915  1   
2333 2916 2917  1   
2334 2917 2918  1   
2335 2917 2919  1   
2336 2917 2920  1   
2337 2921 2922  1   
2338 2922 2923  1   
2339 2922 2924  1   
2340 2922 2925  1   
2341 2926 2927  1   
2342 2927 2928  1   
2343 2927 2929  1   
2344 2927 2930  1   
2345 2931 2932  1   
2346 2932 2933  1   
2347 2932 2934  1   
2348 2932 2935  1   
2349 2936 2937  1   
2350 2937 2938  1   
2351 2937 2939  1   
2352 2937 2940  1   
2353 2941 2942  1   
2354 2942 2943  1   
2355 2942 2944  1   
2356 2942 2945  1   
2357 2946 2947  1   
2358 2947 2948  1   
2359 2947 2949  1   
2360 2947 2950  1   
2361 2951 2952  1   
2362 2952 2953  1   
2363 2952 2954  1   
2364 2952 2955  1   
2365 2956 2957  1   
2366 2957 2958  1   
2367 2957 2959  1   
2368 2957 2960  1   
2369 2961 2962  1   
2370 2962 2963  1   
2371 2962 2964  1   
2372 2962 2965  1   
2373 2966 2967  1   
2374 2967 2968  1   
2375 2967 2969  1   
2376 2967 2970  1   
2377 2971 2972  1   
2378 2972 2973  1   
2379 2972 2974  1   
2380 2972 2975  1   
2381 2976 2977  1   
2382 2977 2978  1   
2383 2977 2979  1   
2384 2977 2980  1   
2385 2981 2982  1   
2386 2982 2983  1   
2387 2982 2984  1   
2388 2982 2985  1   
2389 2986 2987  1   
2390 2987 2988  1   
2391 2987 2989  1   
2392 2987 2990  1   
2393 2991 2992  1   
2394 2992 2993  1   
2395 2992 2994  1   
2396 2992 2995  1   
2397 2996 2997  1   
2398 2997 2998  1   
2399 2997 2999  1   
2400 2997 3000  1   
2401 3001 3002  1   
2402 3002 3003  1   
2403 3002 3004  1   
2404 3002 3005  1   
2405 3006 3007  1   
2406 3007 3008  1   
2407 3007 3009  1   
2408 3007 3010  1   
2409 3011 3012  1   
2410 3012 3013  1   
2411 3012 3014  1   
2412 3012 3015  1   
2413 3016 3017  1   
2414 3017 3018  1   
2415 3017 3019  1   
2416 3017 3020  1   
2417 3021 3022  1   
2418 3022 3023  1   
2419 3022 3024  1   
2420 3022 3025  1   
2421 3026 3027  1   
2422 3027 3028  1   
2423 3027 3029  1   
2424 3027 3030  1   
2425 3031 3032  1   
2426 3032 3033  1   
2427 3032 3034  1   
2428 3032 3035  1   
@<TRIPOS>SUBSTRUCTURE
  1 CCL4    2 GROUP 4 **** **** 0
  2 CCL4    7 GROUP 4 **** **** 0
  3 CCL4   12 GROUP 4 **** **** 0
  4 CCL4   17 GROUP 4 **** **** 0
  5 CCL4   22 GROUP 4 **** **** 0
  6 CCL4   27 GROUP 4 **** **** 0
  7 CCL4   32 GROUP 4 **** **** 0
  8 CCL4   37 GROUP 4 **** **** 0
  9 CCL4   42 GROUP 4 **** **** 0
 10 CCL4   47 GROUP 4 **** **** 0
 11 CCL4   52 GROUP 4 **** **** 0
 12 CCL4   57 GROUP 4 **** **** 0
 13 CCL4   62 GROUP 4 **** **** 0
 14 CCL4   67 GROUP 4 **** **** 0
 15 CCL4   72 GROUP 4 **** **** 0
 16 CCL4   77 GROUP 4 **** **** 0
 17 CCL4   82 GROUP 4 **** **** 0
 18 CCL4   87 GROUP 4 **** **** 0
 19 CCL4   92 GROUP 4 **** **** 0
 20 CCL4   97 GROUP 4 **** **** 0
 21 CCL4  102 GROUP 4 **** **** 0
 22 CCL4  107 GROUP 4 **** **** 0
 23 CCL4  112 GROUP 4 **** **** 0
 24 CCL4  117 GROUP 4 **** **** 0
 25 CCL4  122 GROUP 4 **** **** 0
 26 CCL4  127 GROUP 4 **** **** 0
 27 CCL4  132 GROUP 4 **** **** 0
 28 CCL4  137 GROUP 4 **** **** 0
 29 CCL4  142 GROUP 4 **** **** 0
 30 CCL4  147 GROUP 4 **** **** 0
 31 CCL4  152 GROUP 4 **** **** 0
 32 CCL4  157 GROUP 4 **** **** 0
 33 CCL4  162 GROUP 4 **** **** 0
 34 CCL4  167 GROUP 4 **** **** 0
 35 CCL4  172 GROUP 4 **** **** 0
 36 CCL4  177 GROUP 4 **** **** 0
 37 CCL4  182 GROUP 4 **** **** 0
 38 CCL4  187 GROUP 4 **** **** 0
 39 CCL4  192 GROUP 4 **** **** 0
 40 CCL4  197 GROUP 4 **** **** 0
 41 CCL4  202 GROUP 4 **** **** 0
 42 CCL4  207 GROUP 4 **** **** 0
 43 CCL4  212 GROUP 4 **** **** 0
 44 CCL4  217 GROUP 4 **** **** 0
 45 CCL4  222 GROUP 4 **** **** 0
 46 CCL4  227 GROUP 4 **** **** 0
 47 CCL4  232 GROUP 4 **** **** 0
 48 CCL4  237 GROUP 4 **** **** 0
 49 CCL4  242 GROUP 4 **** **** 0
 50 CCL4  247 GROUP 4 **** **** 0
 51 CCL4  252 GROUP 4 **** **** 0
 52 CCL4  257 GROUP 4 **** **** 0
 53 CCL4  262 GROUP 4 **** **** 0
 54 CCL4  267 GROUP 4 **** **** 0
 55 CCL4  272 GROUP 4 **** **** 0
 56 CCL4  277 GROUP 4 **** **** 0
 57 CCL4  282 GROUP 4 **** **** 0
 58 CCL4  287 GROUP 4 **** **** 0
 59 CCL4  292 GROUP 4 **** **** 0
 60 CCL4  297 GROUP 4 **** **** 0
 61 CCL4  302 GROUP 4 **** **** 0
 62 CCL4  307 GROUP 4 **** **** 0
 63 CCL4  312 GROUP 4 **** **** 0
 64 CCL4  317 GROUP 4 **** **** 0
 65 CCL4  322 GROUP 4 **** **** 0
 66 CCL4  327 GROUP 4 **** **** 0
 67 CCL4  332 GROUP 4 **** **** 0
 68 CCL4  337 GROUP 4 **** **** 0
 69 CCL4  342 GROUP 4 **** **** 0
 70 CCL4  347 GROUP 4 **** **** 0
 71 CCL4  352 GROUP 4 **** **** 0
 72 CCL4  357 GROUP 4 **** **** 0
 73 CCL4  362 GROUP 4 **** **** 0
 74 CCL4  367 GROUP 4 **** **** 0
 75 CCL4  372 GROUP 4 **** **** 0
 76 CCL4  377 GROUP 4 **** **** 0
 77 CCL4  382 GROUP 4 **** **** 0
 78 CCL4  387 GROUP 4 **** **** 0
 79 CCL4  392 GROUP 4 **** **** 0
 80 CCL4  397 GROUP 4 **** **** 0
 81 CCL4  402 GROUP 4 **** **** 0
 82 CCL4  407 GROUP 4 **** **** 0
 83 CCL4  412 GROUP 4 **** **** 0
 84 CCL4  417 GROUP 4 **** **** 0
 85 CCL4  422 GROUP 4 **** **** 0
 86 CCL4  427 GROUP 4 **** **** 0
 87 CCL4  432 GROUP 4 **** **** 0
 88 CCL4  437 GROUP 4 **** **** 0
 89 CCL4  442 GROUP 4 **** **** 0
 90 CCL4  447 GROUP 4 **** **** 0
 91 CCL4  452 GROUP 4 **** **** 0
 92 CCL4  457 GROUP 4 **** **** 0
 93 CCL4  462 GROUP 4 **** **** 0
 94 CCL4  467 GROUP 4 **** **** 0
 95 CCL4  472 GROUP 4 **** **** 0
 96 CCL4  477 GROUP 4 **** **** 0
 97 CCL4  482 GROUP 4 **** **** 0
 98 CCL4  487 GROUP 4 **** **** 0
 99 CCL4  492 GROUP 4 **** **** 0
100 CCL4  497 GROUP 4 **** **** 0
101 CCL4  502 GROUP 4 **** **** 0
102 CCL4  507 GROUP 4 **** **** 0
103 CCL4  512 GROUP 4 **** **** 0
104 CCL4  517 GROUP 4 **** **** 0
105 CCL4  522 GROUP 4 **** **** 0
106 CCL4  527 GROUP 4 **** **** 0
107 CCL4  532 GROUP 4 **** **** 0
108 CCL4  537 GROUP 4 **** **** 0
109 CCL4  542 GROUP 4 **** **** 0
110 CCL4  547 GROUP 4 **** **** 0
111 CCL4  552 GROUP 4 **** **** 0
112 CCL4  557 GROUP 4 **** **** 0
113 CCL4  562 GROUP 4 **** **** 0
114 CCL4  567 GROUP 4 **** **** 0
115 CCL4  572 GROUP 4 **** **** 0
116 CCL4  577 GROUP 4 **** **** 0
117 CCL4  582 GROUP 4 **** **** 0
118 CCL4  587 GROUP 4 **** **** 0
119 CCL4  592 GROUP 4 **** **** 0
120 CCL4  597 GROUP 4 **** **** 0
121 CCL4  602 GROUP 4 **** **** 0
122 CCL4  607 GROUP 4 **** **** 0
123 CCL4  612 GROUP 4 **** **** 0
124 CCL4  617 GROUP 4 **** **** 0
125 CCL4  622 GROUP 4 **** **** 0
126 CCL4  627 GROUP 4 **** **** 0
127 CCL4  632 GROUP 4 **** **** 0
128 CCL4  637 GROUP 4 **** **** 0
129 CCL4  642 GROUP 4 **** **** 0
130 CCL4  647 GROUP 4 **** **** 0
131 CCL4  652 GROUP 4 **** **** 0
132 CCL4  657 GROUP 4 **** **** 0
133 CCL4  662 GROUP 4 **** **** 0
134 CCL4  667 GROUP 4 **** **** 0
135 CCL4  672 GROUP 4 **** **** 0
136 CCL4  677 GROUP 4 **** **** 0
137 CCL4  682 GROUP 4 **** **** 0
138 CCL4  687 GROUP 4 **** **** 0
139 CCL4  692 GROUP 4 **** **** 0
140 CCL4  697 GROUP 4 **** **** 0
141 CCL4  702 GROUP 4 **** **** 0
142 CCL4  707 GROUP 4 **** **** 0
143 CCL4  712 GROUP 4 **** **** 0
144 CCL4  717 GROUP 4 **** **** 0
145 CCL4  722 GROUP 4 **** **** 0
146 CCL4  727 GROUP 4 **** **** 0
147 CCL4  732 GROUP 4 **** **** 0
148 CCL4  737 GROUP 4 **** **** 0
149 CCL4  742 GROUP 4 **** **** 0
150 CCL4  747 GROUP 4 **** **** 0
151 CCL4  752 GROUP 4 **** **** 0
152 CCL4  757 GROUP 4 **** **** 0
153 CCL4  762 GROUP 4 **** **** 0
154 CCL4  767 GROUP 4 **** **** 0
155 CCL4  772 GROUP 4 **** **** 0
156 CCL4  777 GROUP 4 **** **** 0
157 CCL4  782 GROUP 4 **** **** 0
158 CCL4  787 GROUP 4 **** **** 0
159 CCL4  792 GROUP 4 **** **** 0
160 CCL4  797 GROUP 4 **** **** 0
161 CCL4  802 GROUP 4 **** **** 0
162 CCL4  807 GROUP 4 **** **** 0
163 CCL4  812 GROUP 4 **** **** 0
164 CCL4  817 GROUP 4 **** **** 0
165 CCL4  822 GROUP 4 **** **** 0
166 CCL4  827 GROUP 4 **** **** 0
167 CCL4  832 GROUP 4 **** **** 0
168 CCL4  837 GROUP 4 **** **** 0
169 CCL4  842 GROUP 4 **** **** 0
170 CCL4  847 GROUP 4 **** **** 0
171 CCL4  852 GROUP 4 **** **** 0
172 CCL4  857 GROUP 4 **** **** 0
173 CCL4  862 GROUP 4 **** **** 0
174 CCL4  867 GROUP 4 **** **** 0
175 CCL4  872 GROUP 4 **** **** 0
176 CCL4  877 GROUP 4 **** **** 0
177 CCL4  882 GROUP 4 **** **** 0
178 CCL4  887 GROUP 4 **** **** 0
179 CCL4  892 GROUP 4 **** **** 0
180 CCL4  897 GROUP 4 **** **** 0
181 CCL4  902 GROUP 4 **** **** 0
182 CCL4  907 GROUP 4 **** **** 0
183 CCL4  912 GROUP 4 **** **** 0
184 CCL4  917 GROUP 4 **** **** 0
185 CCL4  922 GROUP 4 **** **** 0
186 CCL4  927 GROUP 4 **** **** 0
187 CCL4  932 GROUP 4 **** **** 0
188 CCL4  937 GROUP 4 **** **** 0
189 CCL4  942 GROUP 4 **** **** 0
190 CCL4  947 GROUP 4 **** **** 0
191 CCL4  952 GROUP 4 **** **** 0
192 CCL4  957 GROUP 4 **** **** 0
193 CCL4  962 GROUP 4 **** **** 0
194 CCL4  967 GROUP 4 **** **** 0
195 CCL4  972 GROUP 4 **** **** 0
196 CCL4  977 GROUP 4 **** **** 0
197 CCL4  982 GROUP 4 **** **** 0
198 CCL4  987 GROUP 4 **** **** 0
199 CCL4  992 GROUP 4 **** **** 0
200 CCL4  997 GROUP 4 **** **** 0
201 CCL4 1002 GROUP 4 **** **** 0
202 CCL4 1007 GROUP 4 **** **** 0
203 CCL4 1012 GROUP 4 **** **** 0
204 CCL4 1017 GROUP 4 **** **** 0
205 CCL4 1022 GROUP 4 **** **** 0
206 CCL4 1027 GROUP 4 **** **** 0
207 CCL4 1032 GROUP 4 **** **** 0
208 CCL4 1037 GROUP 4 **** **** 0
209 CCL4 1042 GROUP 4 **** **** 0
210 CCL4 1047 GROUP 4 **** **** 0
211 CCL4 1052 GROUP 4 **** **** 0
212 CCL4 1057 GROUP 4 **** **** 0
213 CCL4 1062 GROUP 4 **** **** 0
214 CCL4 1067 GROUP 4 **** **** 0
215 CCL4 1072 GROUP 4 **** **** 0
216 CCL4 1077 GROUP 4 **** **** 0
217 CCL4 1082 GROUP 4 **** **** 0
218 CCL4 1087 GROUP 4 **** **** 0
219 CCL4 1092 GROUP 4 **** **** 0
220 CCL4 1097 GROUP 4 **** **** 0
221 CCL4 1102 GROUP 4 **** **** 0
222 CCL4 1107 GROUP 4 **** **** 0
223 CCL4 1112 GROUP 4 **** **** 0
224 CCL4 1117 GROUP 4 **** **** 0
225 CCL4 1122 GROUP 4 **** **** 0
226 CCL4 1127 GROUP 4 **** **** 0
227 CCL4 1132 GROUP 4 **** **** 0
228 CCL4 1137 GROUP 4 **** **** 0
229 CCL4 1142 GROUP 4 **** **** 0
230 CCL4 1147 GROUP 4 **** **** 0
231 CCL4 1152 GROUP 4 **** **** 0
232 CCL4 1157 GROUP 4 **** **** 0
233 CCL4 1162 GROUP 4 **** **** 0
234 CCL4 1167 GROUP 4 **** **** 0
235 CCL4 1172 GROUP 4 **** **** 0
236 CCL4 1177 GROUP 4 **** **** 0
237 CCL4 1182 GROUP 4 **** **** 0
238 CCL4 1187 GROUP 4 **** **** 0
239 CCL4 1192 GROUP 4 **** **** 0
240 CCL4 1197 GROUP 4 **** **** 0
241 CCL4 1202 GROUP 4 **** **** 0
242 CCL4 1207 GROUP 4 **** **** 0
243 CCL4 1212 GROUP 4 **** **** 0
244 CCL4 1217 GROUP 4 **** **** 0
245 CCL4 1222 GROUP 4 **** **** 0
246 CCL4 1227 GROUP 4 **** **** 0
247 CCL4 1232 GROUP 4 **** **** 0
248 CCL4 1237 GROUP 4 **** **** 0
249 CCL4 1242 GROUP 4 **** **** 0
250 CCL4 1247 GROUP 4 **** **** 0
251 CCL4 1252 GROUP 4 **** **** 0
252 CCL4 1257 GROUP 4 **** **** 0
253 CCL4 1262 GROUP 4 **** **** 0
254 CCL4 1267 GROUP 4 **** **** 0
255 CCL4 1272 GROUP 4 **** **** 0
256 CCL4 1277 GROUP 4 **** **** 0
257 CCL4 1282 GROUP 4 **** **** 0
258 CCL4 1287 GROUP 4 **** **** 0
259 CCL4 1292 GROUP 4 **** **** 0
260 CCL4 1297 GROUP 4 **** **** 0
261 CCL4 1302 GROUP 4 **** **** 0
262 CCL4 1307 GROUP 4 **** **** 0
263 CCL4 1312 GROUP 4 **** **** 0
264 CCL4 1317 GROUP 4 **** **** 0
265 CCL4 1322 GROUP 4 **** **** 0
266 CCL4 1327 GROUP 4 **** **** 0
267 CCL4 1332 GROUP 4 **** **** 0
268 CCL4 1337 GROUP 4 **** **** 0
269 CCL4 1342 GROUP 4 **** **** 0
270 CCL4 1347 GROUP 4 **** **** 0
271 CCL4 1352 GROUP 4 **** **** 0
272 CCL4 1357 GROUP 4 **** **** 0
273 CCL4 1362 GROUP 4 **** **** 0
274 CCL4 1367 GROUP 4 **** **** 0
275 CCL4 1372 GROUP 4 **** **** 0
276 CCL4 1377 GROUP 4 **** **** 0
277 CCL4 1382 GROUP 4 **** **** 0
278 CCL4 1387 GROUP 4 **** **** 0
279 CCL4 1392 GROUP 4 **** **** 0
280 CCL4 1397 GROUP 4 **** **** 0
281 CCL4 1402 GROUP 4 **** **** 0
282 CCL4 1407 GROUP 4 **** **** 0
283 CCL4 1412 GROUP 4 **** **** 0
284 CCL4 1417 GROUP 4 **** **** 0
285 CCL4 1422 GROUP 4 **** **** 0
286 CCL4 1427 GROUP 4 **** **** 0
287 CCL4 1432 GROUP 4 **** **** 0
288 CCL4 1437 GROUP 4 **** **** 0
289 CCL4 1442 GROUP 4 **** **** 0
290 CCL4 1447 GROUP 4 **** **** 0
291 CCL4 1452 GROUP 4 **** **** 0
292 CCL4 1457 GROUP 4 **** **** 0
293 CCL4 1462 GROUP 4 **** **** 0
294 CCL4 1467 GROUP 4 **** **** 0
295 CCL4 1472 GROUP 4 **** **** 0
296 CCL4 1477 GROUP 4 **** **** 0
297 CCL4 1482 GROUP 4 **** **** 0
298 CCL4 1487 GROUP 4 **** **** 0
299 CCL4 1492 GROUP 4 **** **** 0
300 CCL4 1497 GROUP 4 **** **** 0
301 CCL4 1502 GROUP 4 **** **** 0
302 CCL4 1507 GROUP 4 **** **** 0
303 CCL4 1512 GROUP 4 **** **** 0
304 CCL4 1517 GROUP 4 **** **** 0
305 CCL4 1522 GROUP 4 **** **** 0
306 CCL4 1527 GROUP 4 **** **** 0
307 CCL4 1532 GROUP 4 **** **** 0
308 CCL4 1537 GROUP 4 **** **** 0
309 CCL4 1542 GROUP 4 **** **** 0
310 CCL4 1547 GROUP 4 **** **** 0
311 CCL4 1552 GROUP 4 **** **** 0
312 CCL4 1557 GROUP 4 **** **** 0
313 CCL4 1562 GROUP 4 **** **** 0
314 CCL4 1567 GROUP 4 **** **** 0
315 CCL4 1572 GROUP 4 **** **** 0
316 CCL4 1577 GROUP 4 **** **** 0
317 CCL4 1582 GROUP 4 **** **** 0
318 CCL4 1587 GROUP 4 **** **** 0
319 CCL4 1592 GROUP 4 **** **** 0
320 CCL4 1597 GROUP 4 **** **** 0
321 CCL4 1602 GROUP 4 **** **** 0
322 CCL4 1607 GROUP 4 **** **** 0
323 CCL4 1612 GROUP 4 **** **** 0
324 CCL4 1617 GROUP 4 **** **** 0
325 CCL4 1622 GROUP 4 **** **** 0
326 CCL4 1627 GROUP 4 **** **** 0
327 CCL4 1632 GROUP 4 **** **** 0
328 CCL4 1637 GROUP 4 **** **** 0
329 CCL4 1642 GROUP 4 **** **** 0
330 CCL4 1647 GROUP 4 **** **** 0
331 CCL4 1652 GROUP 4 **** **** 0
332 CCL4 1657 GROUP 4 **** **** 0
333 CCL4 1662 GROUP 4 **** **** 0
334 CCL4 1667 GROUP 4 **** **** 0
335 CCL4 1672 GROUP 4 **** **** 0
336 CCL4 1677 GROUP 4 **** **** 0
337 CCL4 1682 GROUP 4 **** **** 0
338 CCL4 1687 GROUP 4 **** **** 0
339 CCL4 1692 GROUP 4 **** **** 0
340 CCL4 1697 GROUP 4 **** **** 0
341 CCL4 1702 GROUP 4 **** **** 0
342 CCL4 1707 GROUP 4 **** **** 0
343 CCL4 1712 GROUP 4 **** **** 0
344 CCL4 1717 GROUP 4 **** **** 0
345 CCL4 1722 GROUP 4 **** **** 0
346 CCL4 1727 GROUP 4 **** **** 0
347 CCL4 1732 GROUP 4 **** **** 0
348 CCL4 1737 GROUP 4 **** **** 0
349 CCL4 1742 GROUP 4 **** **** 0
350 CCL4 1747 GROUP 4 **** **** 0
351 CCL4 1752 GROUP 4 **** **** 0
352 CCL4 1757 GROUP 4 **** **** 0
353 CCL4 1762 GROUP 4 **** **** 0
354 CCL4 1767 GROUP 4 **** **** 0
355 CCL4 1772 GROUP 4 **** **** 0
356 CCL4 1777 GROUP 4 **** **** 0
357 CCL4 1782 GROUP 4 **** **** 0
358 CCL4 1787 GROUP 4 **** **** 0
359 CCL4 1792 GROUP 4 **** **** 0
360 CCL4 1797 GROUP 4 **** **** 0
361 CCL4 1802 GROUP 4 **** **** 0
362 CCL4 1807 GROUP 4 **** **** 0
363 CCL4 1812 GROUP 4 **** **** 0
364 CCL4 1817 GROUP 4 **** **** 0
365 CCL4 1822 GROUP 4 **** **** 0
366 CCL4 1827 GROUP 4 **** **** 0
367 CCL4 1832 GROUP 4 **** **** 0
368 CCL4 1837 GROUP 4 **** **** 0
369 CCL4 1842 GROUP 4 **** **** 0
370 CCL4 1847 GROUP 4 **** **** 0
371 CCL4 1852 GROUP 4 **** **** 0
372 CCL4 1857 GROUP 4 **** **** 0
373 CCL4 1862 GROUP 4 **** **** 0
374 CCL4 1867 GROUP 4 **** **** 0
375 CCL4 1872 GROUP 4 **** **** 0
376 CCL4 1877 GROUP 4 **** **** 0
377 CCL4 1882 GROUP 4 **** **** 0
378 CCL4 1887 GROUP 4 **** **** 0
379 CCL4 1892 GROUP 4 **** **** 0
380 CCL4 1897 GROUP 4 **** **** 0
381 CCL4 1902 GROUP 4 **** **** 0
382 CCL4 1907 GROUP 4 **** **** 0
383 CCL4 1912 GROUP 4 **** **** 0
384 CCL4 1917 GROUP 4 **** **** 0
385 CCL4 1922 GROUP 4 **** **** 0
386 CCL4 1927 GROUP 4 **** **** 0
387 CCL4 1932 GROUP 4 **** **** 0
388 CCL4 1937 GROUP 4 **** **** 0
389 CCL4 1942 GROUP 4 **** **** 0
390 CCL4 1947 GROUP 4 **** **** 0
391 CCL4 1952 GROUP 4 **** **** 0
392 CCL4 1957 GROUP 4 **** **** 0
393 CCL4 1962 GROUP 4 **** **** 0
394 CCL4 1967 GROUP 4 **** **** 0
395 CCL4 1972 GROUP 4 **** **** 0
396 CCL4 1977 GROUP 4 **** **** 0
397 CCL4 1982 GROUP 4 **** **** 0
398 CCL4 1987 GROUP 4 **** **** 0
399 CCL4 1992 GROUP 4 **** **** 0
400 CCL4 1997 GROUP 4 **** **** 0
401 CCL4 2002 GROUP 4 **** **** 0
402 CCL4 2007 GROUP 4 **** **** 0
403 CCL4 2012 GROUP 4 **** **** 0
404 CCL4 2017 GROUP 4 **** **** 0
405 CCL4 2022 GROUP 4 **** **** 0
406 CCL4 2027 GROUP 4 **** **** 0
407 CCL4 2032 GROUP 4 **** **** 0
408 CCL4 2037 GROUP 4 **** **** 0
409 CCL4 2042 GROUP 4 **** **** 0
410 CCL4 2047 GROUP 4 **** **** 0
411 CCL4 2052 GROUP 4 **** **** 0
412 CCL4 2057 GROUP 4 **** **** 0
413 CCL4 2062 GROUP 4 **** **** 0
414 CCL4 2067 GROUP 4 **** **** 0
415 CCL4 2072 GROUP 4 **** **** 0
416 CCL4 2077 GROUP 4 **** **** 0
417 CCL4 2082 GROUP 4 **** **** 0
418 CCL4 2087 GROUP 4 **** **** 0
419 CCL4 2092 GROUP 4 **** **** 0
420 CCL4 2097 GROUP 4 **** **** 0
421 CCL4 2102 GROUP 4 **** **** 0
422 CCL4 2107 GROUP 4 **** **** 0
423 CCL4 2112 GROUP 4 **** **** 0
424 CCL4 2117 GROUP 4 **** **** 0
425 CCL4 2122 GROUP 4 **** **** 0
426 CCL4 2127 GROUP 4 **** **** 0
427 CCL4 2132 GROUP 4 **** **** 0
428 CCL4 2137 GROUP 4 **** **** 0
429 CCL4 2142 GROUP 4 **** **** 0
430 CCL4 2147 GROUP 4 **** **** 0
431 CCL4 2152 GROUP 4 **** **** 0
432 CCL4 2157 GROUP 4 **** **** 0
433 CCL4 2162 GROUP 4 **** **** 0
434 CCL4 2167 GROUP 4 **** **** 0
435 CCL4 2172 GROUP 4 **** **** 0
436 CCL4 2177 GROUP 4 **** **** 0
437 CCL4 2182 GROUP 4 **** **** 0
438 CCL4 2187 GROUP 4 **** **** 0
439 CCL4 2192 GROUP 4 **** **** 0
440 CCL4 2197 GROUP 4 **** **** 0
441 CCL4 2202 GROUP 4 **** **** 0
442 CCL4 2207 GROUP 4 **** **** 0
443 CCL4 2212 GROUP 4 **** **** 0
444 CCL4 2217 GROUP 4 **** **** 0
445 CCL4 2222 GROUP 4 **** **** 0
446 CCL4 2227 GROUP 4 **** **** 0
447 CCL4 2232 GROUP 4 **** **** 0
448 CCL4 2237 GROUP 4 **** **** 0
449 CCL4 2242 GROUP 4 **** **** 0
450 CCL4 2247 GROUP 4 **** **** 0
451 CCL4 2252 GROUP 4 **** **** 0
452 CCL4 2257 GROUP 4 **** **** 0
453 CCL4 2262 GROUP 4 **** **** 0
454 CCL4 2267 GROUP 4 **** **** 0
455 CCL4 2272 GROUP 4 **** **** 0
456 CCL4 2277 GROUP 4 **** **** 0
457 CCL4 2282 GROUP 4 **** **** 0
458 CCL4 2287 GROUP 4 **** **** 0
459 CCL4 2292 GROUP 4 **** **** 0
460 CCL4 2297 GROUP 4 **** **** 0
461 CCL4 2302 GROUP 4 **** **** 0
462 CCL4 2307 GROUP 4 **** **** 0
463 CCL4 2312 GROUP 4 **** **** 0
464 CCL4 2317 GROUP 4 **** **** 0
465 CCL4 2322 GROUP 4 **** **** 0
466 CCL4 2327 GROUP 4 **** **** 0
467 CCL4 2332 GROUP 4 **** **** 0
468 CCL4 2337 GROUP 4 **** **** 0
469 CCL4 2342 GROUP 4 **** **** 0
470 CCL4 2347 GROUP 4 **** **** 0
471 CCL4 2352 GROUP 4 **** **** 0
472 CCL4 2357 GROUP 4 **** **** 0
473 CCL4 2362 GROUP 4 **** **** 0
474 CCL4 2367 GROUP 4 **** **** 0
475 CCL4 2372 GROUP 4 **** **** 0
476 CCL4 2377 GROUP 4 **** **** 0
477 CCL4 2382 GROUP 4 **** **** 0
478 CCL4 2387 GROUP 4 **** **** 0
479 CCL4 2392 GROUP 4 **** **** 0
480 CCL4 2397 GROUP 4 **** **** 0
481 CCL4 2402 GROUP 4 **** **** 0
482 CCL4 2407 GROUP 4 **** **** 0
483 CCL4 2412 GROUP 4 **** **** 0
484 CCL4 2417 GROUP 4 **** **** 0
485 CCL4 2422 GROUP 4 **** **** 0
486 CCL4 2427 GROUP 4 **** **** 0
487 CCL4 2432 GROUP 4 **** **** 0
488 CCL4 2437 GROUP 4 **** **** 0
489 CCL4 2442 GROUP 4 **** **** 0
490 CCL4 2447 GROUP 4 **** **** 0
491 CCL4 2452 GROUP 4 **** **** 0
492 CCL4 2457 GROUP 4 **** **** 0
493 CCL4 2462 GROUP 4 **** **** 0
494 CCL4 2467 GROUP 4 **** **** 0
495 CCL4 2472 GROUP 4 **** **** 0
496 CCL4 2477 GROUP 4 **** **** 0
497 CCL4 2482 GROUP 4 **** **** 0
498 CCL4 2487 GROUP 4 **** **** 0
499 CCL4 2492 GROUP 4 **** **** 0
500 CCL4 2497 GROUP 4 **** **** 0
501 CCL4 2502 GROUP 4 **** **** 0
502 CCL4 2507 GROUP 4 **** **** 0
503 CCL4 2512 GROUP 4 **** **** 0
504 CCL4 2517 GROUP 4 **** **** 0
505 CCL4 2522 GROUP 4 **** **** 0
506 CCL4 2527 GROUP 4 **** **** 0
507 CCL4 2532 GROUP 4 **** **** 0
508 CCL4 2537 GROUP 4 **** **** 0
509 CCL4 2542 GROUP 4 **** **** 0
510 CCL4 2547 GROUP 4 **** **** 0
511 CCL4 2552 GROUP 4 **** **** 0
512 CCL4 2557 GROUP 4 **** **** 0
513 CCL4 2562 GROUP 4 **** **** 0
514 CCL4 2567 GROUP 4 **** **** 0
515 CCL4 2572 GROUP 4 **** **** 0
516 CCL4 2577 GROUP 4 **** **** 0
517 CCL4 2582 GROUP 4 **** **** 0
518 CCL4 2587 GROUP 4 **** **** 0
519 CCL4 2592 GROUP 4 **** **** 0
520 CCL4 2597 GROUP 4 **** **** 0
521 CCL4 2602 GROUP 4 **** **** 0
522 CCL4 2607 GROUP 4 **** **** 0
523 CCL4 2612 GROUP 4 **** **** 0
524 CCL4 2617 GROUP 4 **** **** 0
525 CCL4 2622 GROUP 4 **** **** 0
526 CCL4 2627 GROUP 4 **** **** 0
527 CCL4 2632 GROUP 4 **** **** 0
528 CCL4 2637 GROUP 4 **** **** 0
529 CCL4 2642 GROUP 4 **** **** 0
530 CCL4 2647 GROUP 4 **** **** 0
531 CCL4 2652 GROUP 4 **** **** 0
532 CCL4 2657 GROUP 4 **** **** 0
533 CCL4 2662 GROUP 4 **** **** 0
534 CCL4 2667 GROUP 4 **** **** 0
535 CCL4 2672 GROUP 4 **** **** 0
536 CCL4 2677 GROUP 4 **** **** 0
537 CCL4 2682 GROUP 4 **** **** 0
538 CCL4 2687 GROUP 4 **** **** 0
539 CCL4 2692 GROUP 4 **** **** 0
540 CCL4 2697 GROUP 4 **** **** 0
541 CCL4 2702 GROUP 4 **** **** 0
542 CCL4 2707 GROUP 4 **** **** 0
543 CCL4 2712 GROUP 4 **** **** 0
544 CCL4 2717 GROUP 4 **** **** 0
545 CCL4 2722 GROUP 4 **** **** 0
546 CCL4 2727 GROUP 4 **** **** 0
547 CCL4 2732 GROUP 4 **** **** 0
548 CCL4 2737 GROUP 4 **** **** 0
549 CCL4 2742 GROUP 4 **** **** 0
550 CCL4 2747 GROUP 4 **** **** 0
551 CCL4 2752 GROUP 4 **** **** 0
552 CCL4 2757 GROUP 4 **** **** 0
553 CCL4 2762 GROUP 4 **** **** 0
554 CCL4 2767 GROUP 4 **** **** 0
555 CCL4 2772 GROUP 4 **** **** 0
556 CCL4 2777 GROUP 4 **** **** 0
557 CCL4 2782 GROUP 4 **** **** 0
558 CCL4 2787 GROUP 4 **** **** 0
559 CCL4 2792 GROUP 4 **** **** 0
560 CCL4 2797 GROUP 4 **** **** 0
561 CCL4 2802 GROUP 4 **** **** 0
562 CCL4 2807 GROUP 4 **** **** 0
563 CCL4 2812 GROUP 4 **** **** 0
564 CCL4 2817 GROUP 4 **** **** 0
565 CCL4 2822 GROUP 4 **** **** 0
566 CCL4 2827 GROUP 4 **** **** 0
567 CCL4 2832 GROUP 4 **** **** 0
568 CCL4 2837 GROUP 4 **** **** 0
569 CCL4 2842 GROUP 4 **** **** 0
570 CCL4 2847 GROUP 4 **** **** 0
571 CCL4 2852 GROUP 4 **** **** 0
572 CCL4 2857 GROUP 4 **** **** 0
573 CCL4 2862 GROUP 4 **** **** 0
574 CCL4 2867 GROUP 4 **** **** 0
575 CCL4 2872 GROUP 4 **** **** 0
576 CCL4 2877 GROUP 4 **** **** 0
577 CCL4 2882 GROUP 4 **** **** 0
578 CCL4 2887 GROUP 4 **** **** 0
579 CCL4 2892 GROUP 4 **** **** 0
580 CCL4 2897 GROUP 4 **** **** 0
581 CCL4 2902 GROUP 4 **** **** 0
582 CCL4 2907 GROUP 4 **** **** 0
583 CCL4 2912 GROUP 4 **** **** 0
584 CCL4 2917 GROUP 4 **** **** 0
585 CCL4 2922 GROUP 4 **** **** 0
586 CCL4 2927 GROUP 4 **** **** 0
587 CCL4 2932 GROUP 4 **** **** 0
588 CCL4 2937 GROUP 4 **** **** 0
589 CCL4 2942 GROUP 4 **** **** 0
590 CCL4 2947 GROUP 4 **** **** 0
591 CCL4 2952 GROUP 4 **** **** 0
592 CCL4 2957 GROUP 4 **** **** 0
593 CCL4 2962 GROUP 4 **** **** 0
594 CCL4 2967 GROUP 4 **** **** 0
595 CCL4 2972 GROUP 4 **** **** 0
596 CCL4 2977 GROUP 4 **** **** 0
597 CCL4 2982 GROUP 4 **** **** 0
598 CCL4 2987 GROUP 4 **** **** 0
599 CCL4 2992 GROUP 4 **** **** 0
600 CCL4 2997 GROUP 4 **** **** 0
601 CCL4 3002 GROUP 4 **** **** 0
602 CCL4 3007 GROUP 4 **** **** 0
603 CCL4 3012 GROUP 4 **** **** 0
604 CCL4 3017 GROUP 4 **** **** 0
605 CCL4 3022 GROUP 4 **** **** 0
606 CCL4 3027 GROUP 4 **** **** 0
607 CCL4 3032 GROUP 4 **** **** 0

# MOE 2020.09 (io_trps.svl 2020.11)
