@<TRIPOS>MOLECULE
C27H37NOS2
109 110 1 0 0 
SMALL
USER_CHARGES


@<TRIPOS>ATOM
  1 C        3.9011     2.2606     0.4236 C.ar  1 <1>  -0.1500 
  2 H        4.5760     1.4745     0.6538 H     1 <1>   0.1500 
  3 C        2.5871     1.9680     0.0697 C.ar  1 <1>  -0.1500 
  4 C        1.6978     2.9937    -0.2231 C.ar  1 <1>  -0.1500 
  5 C        2.1113     4.3409    -0.1491 C.ar  1 <1>   0.0862 
  6 C        1.1768     5.4248    -0.4120 C.cat 1 <1>   0.7776 
  7 O        1.6496     6.6189    -0.3148 O.3   1 <1>  -0.9960 
  8 C       -0.2205     5.2556    -0.7076 C.ar  1 <1>   0.0862 
  9 C       -0.7576     5.6480    -1.9555 C.ar  1 <1>  -0.1500 
 10 C       -2.1193     5.5505    -2.1932 C.ar  1 <1>  -0.1500 
 11 C       -2.9617     5.0594    -1.1927 C.ar  1 <1>   0.0825 
 12 O       -4.2887     5.0379    -1.4570 O.3   1 <1>  -0.3625 
 13 C       -5.3069     4.6176    -0.5165 C.3   1 <1>   0.1200 
 14 C       -6.6984     4.5415    -1.1475 C.3   1 <1>  -0.1600 
 15 C       -7.7048     4.0532    -0.0960 C.3   1 <1>  -0.1600 
 16 C       -9.1106     3.8737    -0.6778 C.3   1 <1>  -0.1600 
 17 C      -10.0655     3.4278     0.4355 C.3   1 <1>  -0.1600 
 18 C      -11.4712     3.1389    -0.1020 C.3   1 <1>  -0.1600 
 19 C      -12.3688     2.6857     1.0561 C.3   1 <1>  -0.1600 
 20 C      -13.7495     2.2571     0.5541 C.3   1 <1>  -0.1600 
 21 C      -14.6111     1.7671     1.7263 C.3   1 <1>  -0.1600 
 22 C      -15.9614     1.2671     1.2166 C.3   1 <1>   0.0700 
 23 S      -16.9899     0.7699     2.6194 S.3   1 <1>  -0.4100 
 24 C       -2.4436     4.6147     0.0314 C.ar  1 <1>  -0.1500 
 25 C       -1.0828     4.7059     0.2667 C.ar  1 <1>  -0.1500 
 26 C        3.4518     4.6143     0.1937 C.ar  1 <1>  -0.1500 
 27 C        4.3365     3.5819     0.4719 C.ar  1 <1>  -0.1500 
 28 H        2.2690     0.9560     0.0219 H     1 <1>   0.1500 
 29 H        0.7061     2.7427    -0.5020 H     1 <1>   0.1500 
 30 H       -0.1188     6.0135    -2.7205 H     1 <1>   0.1500 
 31 H       -2.5366     5.8373    -3.1252 H     1 <1>   0.1500 
 32 H       -5.0472     3.6285    -0.1376 H     1 <1>   0.0800 
 33 H       -5.3295     5.3238     0.3151 H     1 <1>   0.0800 
 34 H       -6.9872     5.5280    -1.5126 H     1 <1>   0.0800 
 35 H       -6.6729     3.8464    -1.9873 H     1 <1>   0.0800 
 36 H       -7.3678     3.0979     0.3112 H     1 <1>   0.0800 
 37 H       -7.7503     4.7780     0.7167 H     1 <1>   0.0800 
 38 H       -9.4569     4.8153    -1.1013 H     1 <1>   0.0800 
 39 H       -9.0886     3.1199    -1.4654 H     1 <1>   0.0800 
 40 H       -9.6740     2.5200     0.8974 H     1 <1>   0.0800 
 41 H      -10.1231     4.2079     1.1972 H     1 <1>   0.0800 
 42 H      -11.8874     4.0357    -0.5617 H     1 <1>   0.0800 
 43 H      -11.4156     2.3524    -0.8563 H     1 <1>   0.0800 
 44 H      -11.9006     1.8397     1.5626 H     1 <1>   0.0800 
 45 H      -12.4806     3.5052     1.7689 H     1 <1>   0.0800 
 46 H      -14.2379     3.1032     0.0662 H     1 <1>   0.0800 
 47 H      -13.6296     1.4477    -0.1687 H     1 <1>   0.0800 
 48 H      -14.1031     0.9484     2.2381 H     1 <1>   0.0800 
 49 H      -14.7709     2.5831     2.4335 H     1 <1>   0.0800 
 50 H      -16.4561     2.0664     0.6671 H     1 <1>   0.0800 
 51 H      -15.8090     0.4124     0.5565 H     1 <1>   0.0800 
 52 H      -18.0827     0.4709     1.9087 H     1 <1>   0.1800 
 53 H       -3.0834     4.2136     0.7747 H     1 <1>   0.1500 
 54 H       -0.6915     4.3695     1.1948 H     1 <1>   0.1500 
 55 H        3.7977     5.6166     0.2418 H     1 <1>   0.1500 
 56 H        5.3445     3.7958     0.7257 H     1 <1>   0.1500 
 57 C        2.2906    10.9751    -2.5881 C.2   1 <1>   0.6590 
 58 C1       1.4424    10.2585    -1.5439 C.3   1 <1>  -0.0990 
 59 C132   -10.1967     1.5506     4.3304 C.3   1 <1>  -0.1600 
 60 H11      0.4161    10.2460    -1.9042 H     1 <1>   0.0800 
 61 H132   -10.0863     1.3658     3.2611 H     1 <1>   0.0800 
 62 H131   -10.2923     0.5852     4.8307 H     1 <1>   0.0800 
 63 H12      1.4699    10.8576    -0.6369 H     1 <1>   0.0800 
 64 C13      1.9391     8.8207    -1.2564 C.3   1 <1>  -0.1600 
 65 H131     2.0820     8.3105    -2.2089 H     1 <1>   0.0800 
 66 C132     1.0253     7.9241    -0.4138 C.3   1 <1>   0.9660 
 67 H132     0.0660     7.8574    -0.9271 H     1 <1>   0.0800 
 68 C133     0.7967     8.5058     0.9933 C.3   1 <1>  -0.1600 
 69 C131    -0.2748     7.7957     1.8449 C.3   1 <1>  -0.1600 
 70 H131    -0.0505     6.7323     1.9220 H     1 <1>   0.0800 
 71 C132    -1.7012     8.0011     1.3050 C.3   1 <1>  -0.1600 
 72 H131    -1.7925     7.5720     0.3079 H     1 <1>   0.0800 
 73 H132    -1.9037     9.0687     1.2369 H     1 <1>   0.0800 
 74 C133    -2.8050     7.3768     2.1761 C.3   1 <1>  -0.0218 
 75 H131    -3.7099     7.3422     1.5872 H     1 <1>   0.0800 
 76 C132    -3.0496     8.1261     3.4707 C.2   1 <1>  -0.2882 
 77 H132    -2.1995     8.6142     3.8706 H     1 <1>   0.1500 
 78 C133    -4.2178     8.1813     4.1317 C.2   1 <1>  -0.2882 
 79 H131    -4.2876     8.7069     5.0514 H     1 <1>   0.1500 
 80 C132    -5.5145     7.5265     3.7045 C.3   1 <1>  -0.0218 
 81 C131    -5.7093     6.1276     4.3034 C.3   1 <1>  -0.1600 
 82 H131    -4.9062     5.4817     3.9472 H     1 <1>   0.0800 
 83 C132    -7.0632     5.5167     3.9222 C.3   1 <1>  -0.1600 
 84 H131    -7.1057     5.4021     2.8395 H     1 <1>   0.0800 
 85 H132    -7.8620     6.1948     4.2302 H     1 <1>   0.0800 
 86 C133    -7.2833     4.1525     4.5871 C.3   1 <1>  -0.1600 
 87 H131    -6.4678     3.4773     4.3223 H     1 <1>   0.0800 
 88 C132    -8.6148     3.5551     4.1115 C.3   1 <1>  -0.1600 
 89 H131    -8.5511     3.3485     3.0425 H     1 <1>   0.0800 
 90 H132    -9.4104     4.2809     4.2846 H     1 <1>   0.0800 
 91 C133    -8.9397     2.2564     4.8623 C.3   1 <1>  -0.1600 
 92 H131    -8.0947     1.5730     4.7683 H     1 <1>   0.0800 
 93 C133   -11.4822     2.3489     4.5756 C.3   1 <1>  -0.2400 
 94 H131   -11.6112     2.5336     5.6421 H     1 <1>   0.0800 
 95 H132   -12.3370     1.7807     4.2103 H     1 <1>   0.0800 
 96 H133   -11.4493     3.2985     4.0441 H     1 <1>   0.0800 
 97 H133    -9.0800     2.4825     5.9194 H     1 <1>   0.0800 
 98 H133    -7.3036     4.2778     5.6719 H     1 <1>   0.0800 
 99 H133    -5.6359     6.1983     5.3899 H     1 <1>   0.0800 
100 H132    -5.5960     7.4789     2.6297 H     1 <1>   0.0800 
101 H133    -6.3366     8.1601     4.0090 H     1 <1>   0.0800 
102 H133    -2.5682     6.3459     2.4009 H     1 <1>   0.0800 
103 H133    -0.2250     8.2086     2.8524 H     1 <1>   0.0800 
104 H132     0.5108     9.5528     0.9188 H     1 <1>   0.0800 
105 H133     1.7475     8.4607     1.5263 H     1 <1>   0.0800 
106 H133     2.9150     8.8725    -0.7719 H     1 <1>   0.0800 
107 O2       3.0178    10.4248    -3.3956 O.2   1 <1>  -0.5700 
108 O3       2.1867    12.3130    -2.5679 O.3   1 <1>  -0.6500 
109 H3       2.7580    12.6239    -3.2742 H     1 <1>   0.5000 
@<TRIPOS>BOND
  1   1   2  1   
  2   1   3  ar  
  3   1  27  ar  
  4   3   4  ar  
  5   3  28  1   
  6   4   5  ar  
  7   4  29  1   
  8   5   6  1   
  9   5  26  ar  
 10   6   7  1   
 11   6   8  1   
 12   7  66  1   
 13   8   9  ar  
 14   8  25  ar  
 15   9  10  ar  
 16   9  30  1   
 17  10  11  ar  
 18  10  31  1   
 19  11  12  1   
 20  11  24  ar  
 21  12  13  1   
 22  13  14  1   
 23  13  32  1   
 24  13  33  1   
 25  14  15  1   
 26  14  34  1   
 27  14  35  1   
 28  15  16  1   
 29  15  36  1   
 30  15  37  1   
 31  16  17  1   
 32  16  38  1   
 33  16  39  1   
 34  17  18  1   
 35  17  40  1   
 36  17  41  1   
 37  18  19  1   
 38  18  42  1   
 39  18  43  1   
 40  19  20  1   
 41  19  44  1   
 42  19  45  1   
 43  20  21  1   
 44  20  46  1   
 45  20  47  1   
 46  21  22  1   
 47  21  48  1   
 48  21  49  1   
 49  22  23  1   
 50  22  50  1   
 51  22  51  1   
 52  23  52  1   
 53  24  25  ar  
 54  24  53  1   
 55  25  54  1   
 56  26  27  ar  
 57  26  55  1   
 58  27  56  1   
 59  57  58  1   
 60  57 107  2   
 61  57 108  1   
 62  58  60  1   
 63  58  63  1   
 64  58  64  1   
 65  59  61  1   
 66  59  62  1   
 67  59  91  1   
 68  59  93  1   
 69  64  65  1   
 70  64  66  1   
 71  64 106  1   
 72  66  67  1   
 73  66  68  1   
 74  68  69  1   
 75  68 104  1   
 76  68 105  1   
 77  69  70  1   
 78  69  71  1   
 79  69 103  1   
 80  71  72  1   
 81  71  73  1   
 82  71  74  1   
 83  74  75  1   
 84  74  76  1   
 85  74 102  1   
 86  76  77  1   
 87  76  78  2   
 88  78  79  1   
 89  78  80  1   
 90  80  81  1   
 91  80 100  1   
 92  80 101  1   
 93  81  82  1   
 94  81  83  1   
 95  81  99  1   
 96  83  84  1   
 97  83  85  1   
 98  83  86  1   
 99  86  87  1   
100  86  88  1   
101  86  98  1   
102  88  89  1   
103  88  90  1   
104  88  91  1   
105  91  92  1   
106  91  97  1   
107  93  94  1   
108  93  95  1   
109  93  96  1   
110 108 109  1   
@<TRIPOS>SUBSTRUCTURE
  1 ****  24 GROUP 4 **** **** 0

# MOE 2020.09 (io_trps.svl 2020.11)
@<TRIPOS>MOLECULE
CCL4
2460 1968 492 0 0 
SMALL
USER_CHARGES


@<TRIPOS>ATOM
   1 CL     -28.2442    -6.6951   -16.5302 Cl      1 CCL4  -0.0812 
   2 C      -28.2597    -7.0840   -14.7979 C.3     1 CCL4   0.3246 
   3 CL     -29.3024    -8.4911   -14.5151 Cl      1 CCL4  -0.0812 
   4 CL     -28.8945    -5.7015   -13.8871 Cl      1 CCL4  -0.0812 
   5 CL     -26.6064    -7.4454   -14.2580 Cl      1 CCL4  -0.0812 
   6 CL      20.0354   -14.6227     1.5642 Cl      2 CCL4  -0.0812 
   7 C       18.3699   -14.1462     1.9567 C.3     2 CCL4   0.3246 
   8 CL      17.3354   -14.4138     0.5368 Cl      2 CCL4  -0.0812 
   9 CL      18.3237   -12.4278     2.4092 Cl      2 CCL4  -0.0812 
  10 CL      17.7859   -15.1278     3.3176 Cl      2 CCL4  -0.0812 
  11 CL     -21.4020     4.5231     1.1888 Cl      3 CCL4  -0.0812 
  12 C      -20.1627     4.4391    -0.0758 C.3     3 CCL4   0.3246 
  13 CL     -19.5385     6.0711    -0.4007 Cl      3 CCL4  -0.0812 
  14 CL     -20.8604     3.7526    -1.5565 Cl      3 CCL4  -0.0812 
  15 CL     -18.8441     3.3925     0.4728 Cl      3 CCL4  -0.0812 
  16 CL     -22.3107     0.1643   -16.3592 Cl      4 CCL4  -0.0812 
  17 C      -20.9628     1.3091   -16.5213 C.3     4 CCL4   0.3246 
  18 CL     -20.7626     2.2130   -15.0053 Cl      4 CCL4  -0.0812 
  19 CL     -21.3073     2.4450   -17.8436 Cl      4 CCL4  -0.0812 
  20 CL     -19.4713     0.4118   -16.8783 Cl      4 CCL4  -0.0812 
  21 CL      22.4202     5.3711   -16.9041 Cl      5 CCL4  -0.0812 
  22 C       20.7104     4.9556   -17.1366 C.3     5 CCL4   0.3246 
  23 CL      20.5636     3.2047   -17.4083 Cl      5 CCL4  -0.0812 
  24 CL      20.0814     5.8336   -18.5450 Cl      5 CCL4  -0.0812 
  25 CL      19.7822     5.4201   -15.6947 Cl      5 CCL4  -0.0812 
  26 CL      19.7420   -11.2370    23.3840 Cl      6 CCL4  -0.0812 
  27 C       21.4338   -11.6862    23.0914 C.3     6 CCL4   0.3246 
  28 CL      22.1980   -12.1353    24.6301 Cl      6 CCL4  -0.0812 
  29 CL      22.2955   -10.3084    22.3724 Cl      6 CCL4  -0.0812 
  30 CL      21.4931   -13.0684    21.9777 Cl      6 CCL4  -0.0812 
  31 CL     -17.0759    -7.7553   -12.5210 Cl      7 CCL4  -0.0812 
  32 C      -17.2937    -9.5165   -12.5906 C.3     7 CCL4   0.3246 
  33 CL     -18.5697    -9.9902   -11.4541 Cl      7 CCL4  -0.0812 
  34 CL     -15.7790   -10.3258   -12.1443 Cl      7 CCL4  -0.0812 
  35 CL     -17.7506    -9.9987   -14.2376 Cl      7 CCL4  -0.0812 
  36 CL     -17.4013    24.9253   -10.4558 Cl      8 CCL4  -0.0812 
  37 C      -18.9837    25.7003   -10.6514 C.3     8 CCL4   0.3246 
  38 CL     -19.0614    26.4896   -12.2394 Cl      8 CCL4  -0.0812 
  39 CL     -19.2066    26.9068    -9.3733 Cl      8 CCL4  -0.0812 
  40 CL     -20.2633    24.4781   -10.5299 Cl      8 CCL4  -0.0812 
  41 CL     -18.5031    -8.2183    -6.4304 Cl      9 CCL4  -0.0812 
  42 C      -19.2809    -9.7814    -6.7267 C.3     9 CCL4   0.3246 
  43 CL     -20.1379    -9.7181    -8.2782 Cl      9 CCL4  -0.0812 
  44 CL     -20.4399   -10.1392    -5.4291 Cl      9 CCL4  -0.0812 
  45 CL     -18.0324   -11.0402    -6.7702 Cl      9 CCL4  -0.0812 
  46 CL     -21.8710   -12.7018    16.0494 Cl     10 CCL4  -0.0812 
  47 C      -20.6258   -11.4375    15.9797 C.3    10 CCL4   0.3246 
  48 CL     -19.1490   -12.0223    16.7757 Cl     10 CCL4  -0.0812 
  49 CL     -21.2129    -9.9806    16.8095 Cl     10 CCL4  -0.0812 
  50 CL     -20.2714   -11.0438    14.2861 Cl     10 CCL4  -0.0812 
  51 CL     -31.6705    -9.2790    -2.5540 Cl     11 CCL4  -0.0812 
  52 C      -30.7166   -10.5126    -1.7071 C.3    11 CCL4   0.3246 
  53 CL     -31.8078   -11.6035    -0.8281 Cl     11 CCL4  -0.0812 
  54 CL     -29.6205    -9.7141    -0.5631 Cl     11 CCL4  -0.0812 
  55 CL     -29.7677   -11.4499    -2.8799 Cl     11 CCL4  -0.0812 
  56 CL     -16.0630    24.4843    -6.9749 Cl     12 CCL4  -0.0812 
  57 C      -16.7725    22.8694    -7.1943 C.3    12 CCL4   0.3246 
  58 CL     -15.9343    22.0316    -8.5143 Cl     12 CCL4  -0.0812 
  59 CL     -18.4950    23.0246    -7.5980 Cl     12 CCL4  -0.0812 
  60 CL     -16.5981    21.9330    -5.6942 Cl     12 CCL4  -0.0812 
  61 CL      17.4558   -10.8217    -7.4772 Cl     13 CCL4  -0.0812 
  62 C       18.9131    -9.9458    -6.9847 C.3    13 CCL4   0.3246 
  63 CL      20.0188    -9.8243    -8.3633 Cl     13 CCL4  -0.0812 
  64 CL      19.7079   -10.8241    -5.6678 Cl     13 CCL4  -0.0812 
  65 CL      18.4657    -8.3213    -6.4321 Cl     13 CCL4  -0.0812 
  66 CL     -28.2661    25.4660    -8.4795 Cl     14 CCL4  -0.0812 
  67 C      -29.5918    26.1372    -7.5089 C.3    14 CCL4   0.3246 
  68 CL     -30.9641    26.5400    -8.5653 Cl     14 CCL4  -0.0812 
  69 CL     -29.0270    27.6022    -6.6818 Cl     14 CCL4  -0.0812 
  70 CL     -30.1014    24.9371    -6.3036 Cl     14 CCL4  -0.0812 
  71 CL      19.6529    25.4197    -3.0931 Cl     15 CCL4  -0.0812 
  72 C       18.2942    24.9209    -4.1239 C.3    15 CCL4   0.3246 
  73 CL      18.2212    25.9660    -5.5567 Cl     15 CCL4  -0.0812 
  74 CL      16.7786    25.0631    -3.2066 Cl     15 CCL4  -0.0812 
  75 CL      18.5234    23.2362    -4.6408 Cl     15 CCL4  -0.0812 
  76 CL     -28.0968    -5.9980    -5.3698 Cl     16 CCL4  -0.0812 
  77 C      -27.9882    -7.4807    -4.3988 C.3    16 CCL4   0.3246 
  78 CL     -29.0030    -8.7414    -5.1282 Cl     16 CCL4  -0.0812 
  79 CL     -28.5468    -7.1513    -2.7474 Cl     16 CCL4  -0.0812 
  80 CL     -26.3024    -8.0332    -4.3464 Cl     16 CCL4  -0.0812 
  81 CL     -20.2254    -7.0557    -3.5880 Cl     17 CCL4  -0.0812 
  82 C      -18.6202    -7.2274    -2.8476 C.3    17 CCL4   0.3246 
  83 CL     -17.4677    -6.1495    -3.6638 Cl     17 CCL4  -0.0812 
  84 CL     -18.0641    -8.9070    -3.0039 Cl     17 CCL4  -0.0812 
  85 CL     -18.7231    -6.7972    -1.1293 Cl     17 CCL4  -0.0812 
  86 CL     -18.9691     2.2521    -6.9567 Cl     18 CCL4  -0.0812 
  87 C      -18.0239     2.9951    -8.2598 C.3    18 CCL4   0.3246 
  88 CL     -16.6498     3.8766    -7.5614 Cl     18 CCL4  -0.0812 
  89 CL     -19.0564     4.1134    -9.1705 Cl     18 CCL4  -0.0812 
  90 CL     -17.4250     1.7337    -9.3531 Cl     18 CCL4  -0.0812 
  91 CL     -18.9799    -3.0878    -2.5691 Cl     19 CCL4  -0.0812 
  92 C      -18.1877    -2.8570    -0.9979 C.3    19 CCL4   0.3246 
  93 CL     -19.1847    -3.5804     0.2812 Cl     19 CCL4  -0.0812 
  94 CL     -18.0010    -1.1216    -0.6742 Cl     19 CCL4  -0.0812 
  95 CL     -16.5885    -3.6307    -1.0296 Cl     19 CCL4  -0.0812 
  96 CL     -19.1899    -6.0760    -9.1201 Cl     20 CCL4  -0.0812 
  97 C      -20.4110    -5.2679    -8.1108 C.3    20 CCL4   0.3246 
  98 CL     -19.7186    -4.8643    -6.5264 Cl     20 CCL4  -0.0812 
  99 CL     -21.8063    -6.3420    -7.8857 Cl     20 CCL4  -0.0812 
 100 CL     -20.9372    -3.7769    -8.9112 Cl     20 CCL4  -0.0812 
 101 CL     -19.0730    -1.3692   -10.9671 Cl     21 CCL4  -0.0812 
 102 C      -19.5781    -0.2988   -12.2863 C.3    21 CCL4   0.3246 
 103 CL     -21.0074    -0.9825   -13.0826 Cl     21 CCL4  -0.0812 
 104 CL     -18.2568    -0.1501   -13.4627 Cl     21 CCL4  -0.0812 
 105 CL     -19.9759     1.3014   -11.6304 Cl     21 CCL4  -0.0812 
 106 CL      20.5330     0.3671    -3.8857 Cl     22 CCL4  -0.0812 
 107 C       18.8432     0.3380    -3.3449 C.3    22 CCL4   0.3246 
 108 CL      18.6538    -0.8625    -2.0541 Cl     22 CCL4  -0.0812 
 109 CL      17.7999    -0.0914    -4.7129 Cl     22 CCL4  -0.0812 
 110 CL      18.3816     1.9349    -2.7255 Cl     22 CCL4  -0.0812 
 111 CL      18.1147    -2.2834    -7.6204 Cl     23 CCL4  -0.0812 
 112 C       18.5346    -3.4517    -8.8857 C.3    23 CCL4   0.3246 
 113 CL      17.0504    -4.0834    -9.6168 Cl     23 CCL4  -0.0812 
 114 CL      19.4639    -4.7926    -8.1819 Cl     23 CCL4  -0.0812 
 115 CL      19.4982    -2.6401   -10.1324 Cl     23 CCL4  -0.0812 
 116 CL     -29.0922    -1.1915    -9.7502 Cl     24 CCL4  -0.0812 
 117 C      -29.0980    -1.2344    -7.9779 C.3    24 CCL4   0.3246 
 118 CL     -30.5602    -0.4346    -7.3672 Cl     24 CCL4  -0.0812 
 119 CL     -27.6659    -0.3819    -7.3777 Cl     24 CCL4  -0.0812 
 120 CL     -29.0648    -2.9212    -7.4211 Cl     24 CCL4  -0.0812 
 121 CL     -21.5664     1.5462    -4.5373 Cl     25 CCL4  -0.0812 
 122 C      -20.7609     0.1396    -3.8128 C.3    25 CCL4   0.3246 
 123 CL     -21.1486    -1.3171    -4.7517 Cl     25 CCL4  -0.0812 
 124 CL     -21.3186    -0.0667    -2.1386 Cl     25 CCL4  -0.0812 
 125 CL     -19.0054     0.3976    -3.8237 Cl     25 CCL4  -0.0812 
 126 CL     -31.3451     5.3379    -6.9830 Cl     26 CCL4  -0.0812 
 127 C      -31.0377     3.5924    -6.8886 C.3    26 CCL4   0.3246 
 128 CL     -29.7705     3.2737    -5.6839 Cl     26 CCL4  -0.0812 
 129 CL     -30.5051     3.0021    -8.4740 Cl     26 CCL4  -0.0812 
 130 CL     -32.5330     2.7575    -6.4220 Cl     26 CCL4  -0.0812 
 131 CL      18.6855    -4.4312    -2.4160 Cl     27 CCL4  -0.0812 
 132 C       19.0251    -4.6081    -4.1480 C.3    27 CCL4   0.3246 
 133 CL      20.0860    -6.0077    -4.3947 Cl     27 CCL4  -0.0812 
 134 CL      19.8371    -3.1476    -4.7433 Cl     27 CCL4  -0.0812 
 135 CL      17.5010    -4.8430    -5.0321 Cl     27 CCL4  -0.0812 
 136 CL     -24.8045     0.0733    -9.3896 Cl     28 CCL4  -0.0812 
 137 C      -23.5127     0.3774    -8.2100 C.3    28 CCL4   0.3246 
 138 CL     -23.3272     2.1234    -7.9701 Cl     28 CCL4  -0.0812 
 139 CL     -21.9847    -0.2955    -8.8127 Cl     28 CCL4  -0.0812 
 140 CL     -23.9343    -0.3866    -6.6663 Cl     28 CCL4  -0.0812 
 141 CL     -28.8537    -3.3758    -3.0271 Cl     29 CCL4  -0.0812 
 142 C      -28.6186    -2.9838    -1.3141 C.3    29 CCL4   0.3246 
 143 CL     -27.2447    -1.8748    -1.1461 Cl     29 CCL4  -0.0812 
 144 CL     -28.2902    -4.4703    -0.3986 Cl     29 CCL4  -0.0812 
 145 CL     -30.0864    -2.2067    -0.6902 Cl     29 CCL4  -0.0812 
 146 CL     -24.9165    -4.9102   -16.6729 Cl     30 CCL4  -0.0812 
 147 C      -24.7792    -3.5201   -15.5752 C.3    30 CCL4   0.3246 
 148 CL     -25.3822    -2.0580   -16.3870 Cl     30 CCL4  -0.0812 
 149 CL     -23.0789    -3.2873   -15.1225 Cl     30 CCL4  -0.0812 
 150 CL     -25.7371    -3.8293   -14.1144 Cl     30 CCL4  -0.0812 
 151 CL     -27.4295   -10.5992   -12.5398 Cl     31 CCL4  -0.0812 
 152 C      -27.7405   -11.7211   -11.2064 C.3    31 CCL4   0.3246 
 153 CL     -28.7352   -10.9087    -9.9850 Cl     31 CCL4  -0.0812 
 154 CL     -26.1968   -12.2153   -10.4822 Cl     31 CCL4  -0.0812 
 155 CL     -28.6022   -13.1480   -11.8201 Cl     31 CCL4  -0.0812 
 156 CL     -23.3552   -10.2699     0.4389 Cl     32 CCL4  -0.0812 
 157 C      -21.7783   -11.0074     0.0893 C.3    32 CCL4   0.3246 
 158 CL     -20.8730   -11.2297     1.5978 Cl     32 CCL4  -0.0812 
 159 CL     -20.8600    -9.9512    -1.0024 Cl     32 CCL4  -0.0812 
 160 CL     -22.0208   -12.5867    -0.6780 Cl     32 CCL4  -0.0812 
 161 CL     -23.0411    -8.7732    23.6654 Cl     33 CCL4  -0.0812 
 162 C      -21.7588    -8.1462    22.6082 C.3    33 CCL4   0.3246 
 163 CL     -20.2582    -9.0533    22.8964 Cl     33 CCL4  -0.0812 
 164 CL     -21.4883    -6.4229    22.9532 Cl     33 CCL4  -0.0812 
 165 CL     -22.2489    -8.3399    20.9113 Cl     33 CCL4  -0.0812 
 166 CL     -23.0236   -13.1838   -12.8740 Cl     34 CCL4  -0.0812 
 167 C      -22.5332   -11.4906   -12.6684 C.3    34 CCL4   0.3246 
 168 CL     -21.9485   -11.2557   -11.0108 Cl     34 CCL4  -0.0812 
 169 CL     -23.9187   -10.4216   -12.9646 Cl     34 CCL4  -0.0812 
 170 CL     -21.2428   -11.1011   -13.8233 Cl     34 CCL4  -0.0812 
 171 CL     -20.9298    -5.0642   -12.3694 Cl     35 CCL4  -0.0812 
 172 C      -21.5237    -6.6930   -12.7524 C.3    35 CCL4   0.3246 
 173 CL     -23.0970    -6.5784   -13.5645 Cl     35 CCL4  -0.0812 
 174 CL     -21.6898    -7.6338   -11.2586 Cl     35 CCL4  -0.0812 
 175 CL     -20.3711    -7.5057   -13.8224 Cl     35 CCL4  -0.0812 
 176 CL     -26.1393   -10.7001   -15.9761 Cl     36 CCL4  -0.0812 
 177 C      -25.6482   -12.4023   -16.1034 C.3    36 CCL4   0.3246 
 178 CL     -26.4650   -13.1498   -17.4921 Cl     36 CCL4  -0.0812 
 179 CL     -26.1024   -13.2656   -14.6190 Cl     36 CCL4  -0.0812 
 180 CL     -23.8886   -12.4953   -16.3314 Cl     36 CCL4  -0.0812 
 181 CL     -26.1991     2.0988   -12.3869 Cl     37 CCL4  -0.0812 
 182 C      -24.5794     1.6957   -12.9920 C.3    37 CCL4   0.3246 
 183 CL     -23.3650     2.1503   -11.7817 Cl     37 CCL4  -0.0812 
 184 CL     -24.2700     2.5840   -14.4952 Cl     37 CCL4  -0.0812 
 185 CL     -24.4773    -0.0479   -13.3060 Cl     37 CCL4  -0.0812 
 186 CL     -27.7123     2.7179   -19.1084 Cl     38 CCL4  -0.0812 
 187 C      -26.4871     2.4493   -17.8499 C.3    38 CCL4   0.3246 
 188 CL     -27.2288     1.6300   -16.4599 Cl     38 CCL4  -0.0812 
 189 CL     -25.8271     4.0145   -17.3365 Cl     38 CCL4  -0.0812 
 190 CL     -25.1775     1.4383   -18.4966 Cl     38 CCL4  -0.0812 
 191 CL     -23.7365    -9.2493    -6.7609 Cl     39 CCL4  -0.0812 
 192 C      -25.0371    -8.7874    -7.8780 C.3    39 CCL4   0.3246 
 193 CL     -26.4676    -9.7854    -7.5578 Cl     39 CCL4  -0.0812 
 194 CL     -24.5031    -9.0491    -9.5495 Cl     39 CCL4  -0.0812 
 195 CL     -25.4447    -7.0740    -7.6442 Cl     39 CCL4  -0.0812 
 196 CL     -29.2942    -7.2057    -8.4206 Cl     40 CCL4  -0.0812 
 197 C      -29.1685    -6.8548   -10.1535 C.3    40 CCL4   0.3246 
 198 CL     -30.4299    -7.7432   -11.0310 Cl     40 CCL4  -0.0812 
 199 CL     -27.5753    -7.3663   -10.7419 Cl     40 CCL4  -0.0812 
 200 CL     -29.3696    -5.1103   -10.4169 Cl     40 CCL4  -0.0812 
 201 CL     -24.8027    26.0216    -6.9541 Cl     41 CCL4  -0.0812 
 202 C      -23.2387    25.8751    -7.7843 C.3    41 CCL4   0.3246 
 203 CL     -23.5111    25.6233    -9.5186 Cl     41 CCL4  -0.0812 
 204 CL     -22.3390    24.4898    -7.1282 Cl     41 CCL4  -0.0812 
 205 CL     -22.3044    27.3655    -7.5450 Cl     41 CCL4  -0.0812 
 206 CL     -24.4422    -5.3548     0.0187 Cl     42 CCL4  -0.0812 
 207 C      -22.9824    -6.0739    -0.6857 C.3    42 CCL4   0.3246 
 208 CL     -22.0940    -4.8353    -1.5942 Cl     42 CCL4  -0.0812 
 209 CL     -23.4442    -7.3968    -1.7770 Cl     42 CCL4  -0.0812 
 210 CL     -21.9503    -6.7030     0.6131 Cl     42 CCL4  -0.0812 
 211 CL     -28.0133     5.6638    -8.2350 Cl     43 CCL4  -0.0812 
 212 C      -26.5267     4.8549    -8.7591 C.3    43 CCL4   0.3246 
 213 CL     -25.2656     5.1194    -7.5421 Cl     43 CCL4  -0.0812 
 214 CL     -26.0020     5.5327   -10.3123 Cl     43 CCL4  -0.0812 
 215 CL     -26.8286     3.1139    -8.9403 Cl     43 CCL4  -0.0812 
 216 CL     -27.0276     2.8734    -2.8163 Cl     44 CCL4  -0.0812 
 217 C      -26.4136     1.6206    -3.9064 C.3    44 CCL4   0.3246 
 218 CL     -26.2016     2.3078    -5.5267 Cl     44 CCL4  -0.0812 
 219 CL     -27.5714     0.2774    -3.9645 Cl     44 CCL4  -0.0812 
 220 CL     -24.8527     1.0304    -3.3109 Cl     44 CCL4  -0.0812 
 221 CL     -25.1883   -13.1023    -2.1585 Cl     45 CCL4  -0.0812 
 222 C      -25.4212   -11.5079    -2.9069 C.3    45 CCL4   0.3246 
 223 CL     -26.3555   -11.6931    -4.4034 Cl     45 CCL4  -0.0812 
 224 CL     -23.8453   -10.7803    -3.2855 Cl     45 CCL4  -0.0812 
 225 CL     -26.3039   -10.4557    -1.7835 Cl     45 CCL4  -0.0812 
 226 CL     -19.1830    27.3455    -3.0703 Cl     46 CCL4  -0.0812 
 227 C      -20.0093    26.0349    -3.9409 C.3    46 CCL4   0.3246 
 228 CL     -19.8031    24.5101    -3.0518 Cl     46 CCL4  -0.0812 
 229 CL     -19.3114    25.8728    -5.5653 Cl     46 CCL4  -0.0812 
 230 CL     -21.7401    26.4068    -4.0774 Cl     46 CCL4  -0.0812 
 231 CL     -23.4906    -4.3396    -5.0718 Cl     47 CCL4  -0.0812 
 232 C      -24.8051    -3.5911    -4.1385 C.3    47 CCL4   0.3246 
 233 CL     -25.9920    -2.8710    -5.2433 Cl     47 CCL4  -0.0812 
 234 CL     -24.1438    -2.3372    -3.0726 Cl     47 CCL4  -0.0812 
 235 CL     -25.6041    -4.8239    -3.1513 Cl     47 CCL4  -0.0812 
 236 CL     -28.7812     0.4611     1.5208 Cl     48 CCL4  -0.0812 
 237 C      -29.3459     1.9602     0.7545 C.3    48 CCL4   0.3246 
 238 CL     -28.0027     3.1145     0.6360 Cl     48 CCL4  -0.0812 
 239 CL     -30.6510     2.6731     1.7233 Cl     48 CCL4  -0.0812 
 240 CL     -29.9534     1.5943    -0.8706 Cl     48 CCL4  -0.0812 
 241 CL     -28.9783    -3.3018    20.7427 Cl     49 CCL4  -0.0812 
 242 C      -30.1343    -1.9575    20.6202 C.3    49 CCL4   0.3246 
 243 CL     -29.3419    -0.4513    21.1259 Cl     49 CCL4  -0.0812 
 244 CL     -31.5326    -2.2682    21.6723 Cl     49 CCL4  -0.0812 
 245 CL     -30.6824    -1.8048    18.9368 Cl     49 CCL4  -0.0812 
 246 CL     -23.5325    -2.7896   -11.1694 Cl     50 CCL4  -0.0812 
 247 C      -24.7498    -3.7102   -10.2643 C.3    50 CCL4   0.3246 
 248 CL     -24.5008    -3.4885    -8.5215 Cl     50 CCL4  -0.0812 
 249 CL     -24.5979    -5.4294   -10.6645 Cl     50 CCL4  -0.0812 
 250 CL     -26.3699    -3.1393   -10.7037 Cl     50 CCL4  -0.0812 
 251 CL     -30.2558    -0.2181   -15.2937 Cl     51 CCL4  -0.0812 
 252 C      -29.3368    -1.5201   -14.5114 C.3    51 CCL4   0.3246 
 253 CL     -30.3269    -2.2894   -13.2556 Cl     51 CCL4  -0.0812 
 254 CL     -27.8749    -0.8481   -13.7664 Cl     51 CCL4  -0.0812 
 255 CL     -28.8841    -2.7263   -15.7307 Cl     51 CCL4  -0.0812 
 256 CL     -29.4762     3.1230   -14.1259 Cl     52 CCL4  -0.0812 
 257 C      -30.0768     3.1399   -12.4591 C.3    52 CCL4   0.3246 
 258 CL     -29.1262     4.2932   -11.5073 Cl     52 CCL4  -0.0812 
 259 CL     -29.9166     1.5183   -11.7610 Cl     52 CCL4  -0.0812 
 260 CL     -31.7828     3.6260   -12.4468 Cl     52 CCL4  -0.0812 
 261 CL     -31.0903    -9.7201     4.9653 Cl     53 CCL4  -0.0812 
 262 C      -31.1057    -8.4446     6.1992 C.3    53 CCL4   0.3246 
 263 CL     -31.6420    -9.1362     7.7411 Cl     53 CCL4  -0.0812 
 264 CL     -32.2190    -7.1519     5.7096 Cl     53 CCL4  -0.0812 
 265 CL     -29.4731    -7.7742     6.3839 Cl     53 CCL4  -0.0812 
 266 CL     -20.7419     0.0748     5.6356 Cl     54 CCL4  -0.0812 
 267 C      -20.9443     1.7920     5.2317 C.3    54 CCL4   0.3246 
 268 CL     -20.2317     2.7875     6.5161 Cl     54 CCL4  -0.0812 
 269 CL     -22.6721     2.1701     5.0794 Cl     54 CCL4  -0.0812 
 270 CL     -20.1316     2.1363     3.6936 Cl     54 CCL4  -0.0812 
 271 CL      21.1218     5.0086     5.8032 Cl     55 CCL4  -0.0812 
 272 C       19.3900     4.6450     5.9294 C.3    55 CCL4   0.3246 
 273 CL      19.0830     3.0033     5.3244 Cl     55 CCL4  -0.0812 
 274 CL      18.4670     5.8132     4.9682 Cl     55 CCL4  -0.0812 
 275 CL      18.8874     4.7636     7.6255 Cl     55 CCL4  -0.0812 
 276 CL     -29.6505   -11.6258     2.2850 Cl     56 CCL4  -0.0812 
 277 C      -28.2452   -12.5620     1.7375 C.3    56 CCL4   0.3246 
 278 CL     -28.5627   -13.2480     0.1300 Cl     56 CCL4  -0.0812 
 279 CL     -27.9299   -13.8767     2.8856 Cl     56 CCL4  -0.0812 
 280 CL     -26.8289   -11.4989     1.6525 Cl     56 CCL4  -0.0812 
 281 CL      18.3791   -12.8275     6.2032 Cl     57 CCL4  -0.0812 
 282 C       19.9164   -13.6684     6.4755 C.3    57 CCL4   0.3246 
 283 CL      20.7909   -12.8807     7.8058 Cl     57 CCL4  -0.0812 
 284 CL      20.8931   -13.5962     4.9991 Cl     57 CCL4  -0.0812 
 285 CL      19.6017   -15.3687     6.8803 Cl     57 CCL4  -0.0812 
 286 CL     -16.1343    -9.8165    11.0021 Cl     58 CCL4  -0.0812 
 287 C      -17.1009   -10.9381    10.0263 C.3    58 CCL4   0.3246 
 288 CL     -18.3861   -11.6391    11.0299 Cl     58 CCL4  -0.0812 
 289 CL     -16.0534   -12.2257     9.4003 Cl     58 CCL4  -0.0812 
 290 CL     -17.8323   -10.0652     8.6695 Cl     58 CCL4  -0.0812 
 291 CL     -18.5130    22.2427    10.1777 Cl     59 CCL4  -0.0812 
 292 C      -19.4705    23.6142     9.5959 C.3    59 CCL4   0.3246 
 293 CL     -18.4624    25.0727     9.6096 Cl     59 CCL4  -0.0812 
 294 CL     -20.8746    23.8480    10.6537 Cl     59 CCL4  -0.0812 
 295 CL     -20.0307    23.2878     7.9451 Cl     59 CCL4  -0.0812 
 296 CL     -19.2757   -15.7024     4.6531 Cl     60 CCL4  -0.0812 
 297 C      -17.9519   -14.5218     4.5525 C.3    60 CCL4   0.3246 
 298 CL     -17.1408   -14.4029     6.1277 Cl     60 CCL4  -0.0812 
 299 CL     -18.6046   -12.9317     4.1054 Cl     60 CCL4  -0.0812 
 300 CL     -16.7843   -15.0507     3.3224 Cl     60 CCL4  -0.0812 
 301 CL     -18.9774    24.1695    16.1869 Cl     61 CCL4  -0.0812 
 302 C      -19.2973    24.0031    14.4483 C.3    61 CCL4   0.3246 
 303 CL     -18.0532    22.9732    13.7111 Cl     61 CCL4  -0.0812 
 304 CL     -19.2593    25.6030    13.6844 Cl     61 CCL4  -0.0812 
 305 CL     -20.8977    23.2698    14.2127 Cl     61 CCL4  -0.0812 
 306 CL      18.5297   -10.0812    13.4789 Cl     62 CCL4  -0.0812 
 307 C       20.0326    -9.2699    12.9901 C.3    62 CCL4   0.3246 
 308 CL      20.4527    -9.7591    11.3359 Cl     62 CCL4  -0.0812 
 309 CL      21.3451    -9.7225    14.0963 Cl     62 CCL4  -0.0812 
 310 CL      19.8040    -7.5123    13.0531 Cl     62 CCL4  -0.0812 
 311 CL     -28.2223    25.1609    12.1690 Cl     63 CCL4  -0.0812 
 312 C      -29.1994    26.6259    12.3859 C.3    63 CCL4   0.3246 
 313 CL     -30.7769    26.4229    11.5931 Cl     63 CCL4  -0.0812 
 314 CL     -28.3562    28.0068    11.6606 Cl     63 CCL4  -0.0812 
 315 CL     -29.4315    26.9087    14.1240 Cl     63 CCL4  -0.0812 
 316 CL     -19.5901     1.2684    14.7586 Cl     64 CCL4  -0.0812 
 317 C      -19.3136     2.5840    13.5979 C.3    64 CCL4   0.3246 
 318 CL     -20.3382     3.9710    14.0219 Cl     64 CCL4  -0.0812 
 319 CL     -19.7193     2.0261    11.9629 Cl     64 CCL4  -0.0812 
 320 CL     -17.6064     3.0703    13.6474 Cl     64 CCL4  -0.0812 
 321 CL     -23.3207    -4.0540     3.1740 Cl     65 CCL4  -0.0812 
 322 C      -23.7513    -2.5094     2.4079 C.3    65 CCL4   0.3246 
 323 CL     -22.7831    -2.2885     0.9345 Cl     65 CCL4  -0.0812 
 324 CL     -23.4163    -1.1804     3.5362 Cl     65 CCL4  -0.0812 
 325 CL     -25.4783    -2.5104     1.9882 Cl     65 CCL4  -0.0812 
 326 CL      18.1962    -2.1860     1.3769 Cl     66 CCL4  -0.0812 
 327 C       17.9162    -0.7060     2.3196 C.3    66 CCL4   0.3246 
 328 CL      16.7749    -1.0541     3.6338 Cl     66 CCL4  -0.0812 
 329 CL      17.2478     0.5582     1.2638 Cl     66 CCL4  -0.0812 
 330 CL      19.4498    -0.1420     3.0108 Cl     66 CCL4  -0.0812 
 331 CL     -18.8936    -8.2012    12.7152 Cl     67 CCL4  -0.0812 
 332 C      -19.6187    -6.8153    13.5558 C.3    67 CCL4   0.3246 
 333 CL     -18.5178    -6.2554    14.8323 Cl     67 CCL4  -0.0812 
 334 CL     -21.1655    -7.3015    14.2808 Cl     67 CCL4  -0.0812 
 335 CL     -19.8963    -5.4996    12.3968 Cl     67 CCL4  -0.0812 
 336 CL     -19.9997    -1.6319    11.0204 Cl     68 CCL4  -0.0812 
 337 C      -19.1828    -1.5114     9.4507 C.3    68 CCL4   0.3246 
 338 CL     -20.0933    -2.4245     8.2306 Cl     68 CCL4  -0.0812 
 339 CL     -17.5447    -2.1708     9.5939 Cl     68 CCL4  -0.0812 
 340 CL     -19.0859     0.1874     8.9610 Cl     68 CCL4  -0.0812 
 341 CL      21.4249    -7.1147     2.5456 Cl     69 CCL4  -0.0812 
 342 C       19.9050    -7.1383     1.6333 C.3    69 CCL4   0.3246 
 343 CL      19.2630    -8.7924     1.6264 Cl     69 CCL4  -0.0812 
 344 CL      20.2137    -6.6071    -0.0327 Cl     69 CCL4  -0.0812 
 345 CL      18.7281    -6.0466     2.3968 Cl     69 CCL4  -0.0812 
 346 CL      19.2730    -2.9570    14.7669 Cl     70 CCL4  -0.0812 
 347 C       20.5104    -3.3686    13.5603 C.3    70 CCL4   0.3246 
 348 CL      19.7279    -4.0286    12.1080 Cl     70 CCL4  -0.0812 
 349 CL      21.6178    -4.5796    14.2411 Cl     70 CCL4  -0.0812 
 350 CL      21.4266    -1.9087    13.1309 Cl     70 CCL4  -0.0812 
 351 CL     -32.2147     4.1941    18.2477 Cl     71 CCL4  -0.0812 
 352 C      -32.8681     2.5607    18.0061 C.3    71 CCL4   0.3246 
 353 CL     -32.2664     1.4920    19.2917 Cl     71 CCL4  -0.0812 
 354 CL     -32.3464     1.9450    16.4221 Cl     71 CCL4  -0.0812 
 355 CL     -34.6434     2.6139    18.0649 Cl     71 CCL4  -0.0812 
 356 CL     -25.4106     0.9104    13.5510 Cl     72 CCL4  -0.0812 
 357 C      -23.6947     1.3697    13.5488 C.3    72 CCL4   0.3246 
 358 CL     -23.4286     2.6792    12.3787 Cl     72 CCL4  -0.0812 
 359 CL     -22.7060    -0.0352    13.0987 Cl     72 CCL4  -0.0812 
 360 CL     -23.2338     1.9257    15.1711 Cl     72 CCL4  -0.0812 
 361 CL     -25.9556    -5.5931     6.2935 Cl     73 CCL4  -0.0812 
 362 C      -25.5029    -3.9301     6.7232 C.3    73 CCL4   0.3246 
 363 CL     -26.0380    -2.8245     5.4468 Cl     73 CCL4  -0.0812 
 364 CL     -23.7382    -3.8242     6.8969 Cl     73 CCL4  -0.0812 
 365 CL     -26.2868    -3.4668     8.2470 Cl     73 CCL4  -0.0812 
 366 CL     -26.0964    -9.5067     6.9848 Cl     74 CCL4  -0.0812 
 367 C      -27.1996   -10.8277     7.4179 C.3    74 CCL4   0.3246 
 368 CL     -28.3857   -10.2464     8.6029 Cl     74 CCL4  -0.0812 
 369 CL     -26.2787   -12.1650     8.1297 Cl     74 CCL4  -0.0812 
 370 CL     -28.0343   -11.3986     5.9586 Cl     74 CCL4  -0.0812 
 371 CL     -20.6255    -9.7823     4.8275 Cl     75 CCL4  -0.0812 
 372 C      -20.0497    -8.1478     4.4433 C.3    75 CCL4   0.3246 
 373 CL     -18.7156    -7.7296     5.5321 Cl     75 CCL4  -0.0812 
 374 CL     -21.3745    -6.9832     4.6588 Cl     75 CCL4  -0.0812 
 375 CL     -19.4737    -8.0962     2.7638 Cl     75 CCL4  -0.0812 
 376 CL     -22.7437   -13.8900     8.3631 Cl     76 CCL4  -0.0812 
 377 C      -21.9407   -12.3072     8.2820 C.3    76 CCL4   0.3246 
 378 CL     -21.7922   -11.6274     9.9150 Cl     76 CCL4  -0.0812 
 379 CL     -22.9063   -11.2041     7.2833 Cl     76 CCL4  -0.0812 
 380 CL     -20.3256   -12.5004     7.5670 Cl     76 CCL4  -0.0812 
 381 CL     -21.3382    -5.6859     9.0976 Cl     77 CCL4  -0.0812 
 382 C      -21.9580    -7.3488     9.1220 C.3    77 CCL4   0.3246 
 383 CL     -23.5418    -7.4051     8.3258 Cl     77 CCL4  -0.0812 
 384 CL     -22.1161    -7.9045    10.7989 Cl     77 CCL4  -0.0812 
 385 CL     -20.8310    -8.4081     8.2612 Cl     77 CCL4  -0.0812 
 386 CL     -20.5500    24.9108     1.3721 Cl     78 CCL4  -0.0812 
 387 C      -21.4308    23.4136     0.9993 C.3    78 CCL4   0.3246 
 388 CL     -22.4406    22.9571     2.3883 Cl     78 CCL4  -0.0812 
 389 CL     -20.2671    22.1142     0.6611 Cl     78 CCL4  -0.0812 
 390 CL     -22.4634    23.6709    -0.4239 Cl     78 CCL4  -0.0812 
 391 CL     -25.3315     0.6862     0.4392 Cl     79 CCL4  -0.0812 
 392 C      -24.1792     1.9909     0.7714 C.3    79 CCL4   0.3246 
 393 CL     -24.1438     3.1043    -0.6066 Cl     79 CCL4  -0.0812 
 394 CL     -22.5644     1.2957     1.0209 Cl     79 CCL4  -0.0812 
 395 CL     -24.6810     2.8767     2.2250 Cl     79 CCL4  -0.0812 
 396 CL     -23.9249   -11.1567     3.7969 Cl     80 CCL4  -0.0812 
 397 C      -23.7998   -12.9250     3.8903 C.3    80 CCL4   0.3246 
 398 CL     -24.0761   -13.6381     2.2862 Cl     80 CCL4  -0.0812 
 399 CL     -25.0190   -13.5283     5.0273 Cl     80 CCL4  -0.0812 
 400 CL     -22.1815   -13.3781     4.4595 Cl     80 CCL4  -0.0812 
 401 CL     -25.2806     0.4531     9.9667 Cl     81 CCL4  -0.0812 
 402 C      -24.0524     0.9523     8.7857 C.3    81 CCL4   0.3246 
 403 CL     -22.4404     0.8236     9.5103 Cl     81 CCL4  -0.0812 
 404 CL     -24.3427     2.6383     8.3092 Cl     81 CCL4  -0.0812 
 405 CL     -24.1385    -0.1091     7.3639 Cl     81 CCL4  -0.0812 
 406 CL     -24.6152    -7.6571     2.8769 Cl     82 CCL4  -0.0812 
 407 C      -26.3526    -7.4907     2.5525 C.3    82 CCL4   0.3246 
 408 CL     -27.2543    -8.5493     3.6556 Cl     82 CCL4  -0.0812 
 409 CL     -26.6958    -7.9543     0.8724 Cl     82 CCL4  -0.0812 
 410 CL     -26.8427    -5.8035     2.8078 Cl     82 CCL4  -0.0812 
 411 CL     -28.9473     2.0491     4.7964 Cl     83 CCL4  -0.0812 
 412 C      -27.3165     1.8148     5.4534 C.3    83 CCL4   0.3246 
 413 CL     -27.4387     1.1646     7.0992 Cl     83 CCL4  -0.0812 
 414 CL     -26.4608     3.3697     5.4933 Cl     83 CCL4  -0.0812 
 415 CL     -26.4236     0.6728     4.4289 Cl     83 CCL4  -0.0812 
 416 CL     -23.5628   -10.2773    13.2393 Cl     84 CCL4  -0.0812 
 417 C      -25.0582    -9.3931    12.8820 C.3    84 CCL4   0.3246 
 418 CL     -26.3885   -10.0807    13.8367 Cl     84 CCL4  -0.0812 
 419 CL     -25.4273    -9.5302    11.1476 Cl     84 CCL4  -0.0812 
 420 CL     -24.8480    -7.6848    13.3173 Cl     84 CCL4  -0.0812 
 421 CL     -28.3171    -7.3964    12.0570 Cl     85 CCL4  -0.0812 
 422 C      -28.4973    -6.3937    10.6042 C.3    85 CCL4   0.3246 
 423 CL     -30.1079    -6.6450     9.9099 Cl     85 CCL4  -0.0812 
 424 CL     -27.2676    -6.8523     9.4104 Cl     85 CCL4  -0.0812 
 425 CL     -28.3041    -4.6837    11.0387 Cl     85 CCL4  -0.0812 
 426 CL     -25.0861    26.3229    14.0661 Cl     86 CCL4  -0.0812 
 427 C      -24.2496    25.9020    12.5566 C.3    86 CCL4   0.3246 
 428 CL     -24.9507    26.8287    11.2185 Cl     86 CCL4  -0.0812 
 429 CL     -24.4292    24.1645    12.2341 Cl     86 CCL4  -0.0812 
 430 CL     -22.5286    26.2989    12.7013 Cl     86 CCL4  -0.0812 
 431 CL     -27.9410     6.1738    12.2227 Cl     87 CCL4  -0.0812 
 432 C      -26.6169     4.9900    12.1976 C.3    87 CCL4   0.3246 
 433 CL     -26.0199     4.7417    13.8522 Cl     87 CCL4  -0.0812 
 434 CL     -25.2981     5.5975    11.1769 Cl     87 CCL4  -0.0812 
 435 CL     -27.2063     3.4484    11.5400 Cl     87 CCL4  -0.0812 
 436 CL     -29.2762    -4.5159     5.0964 Cl     88 CCL4  -0.0812 
 437 C      -30.1454    -3.2314     4.2375 C.3    88 CCL4   0.3246 
 438 CL     -29.2771    -1.6975     4.4364 Cl     88 CCL4  -0.0812 
 439 CL     -31.7873    -3.0925     4.8996 Cl     88 CCL4  -0.0812 
 440 CL     -30.2352    -3.6218     2.5118 Cl     88 CCL4  -0.0812 
 441 CL     -23.2728    -2.6128    10.2577 Cl     89 CCL4  -0.0812 
 442 C      -24.0838    -3.5070    11.5563 C.3    89 CCL4   0.3246 
 443 CL     -22.9693    -3.7172    12.9227 Cl     89 CCL4  -0.0812 
 444 CL     -24.5756    -5.0986    10.9495 Cl     89 CCL4  -0.0812 
 445 CL     -25.5161    -2.6031    12.0910 Cl     89 CCL4  -0.0812 
 446 CL     -30.5190    -0.5178     7.4030 Cl     90 CCL4  -0.0812 
 447 C      -30.4146    -1.5491     8.8402 C.3    90 CCL4   0.3246 
 448 CL     -31.8435    -1.2756     9.8567 Cl     90 CCL4  -0.0812 
 449 CL     -28.9424    -1.1462     9.7496 Cl     90 CCL4  -0.0812 
 450 CL     -30.3571    -3.2524     8.3430 Cl     90 CCL4  -0.0812 
 451 CL     -30.1886     2.6215     9.0121 Cl     91 CCL4  -0.0812 
 452 C      -31.0706     2.7827    10.5444 C.3    91 CCL4   0.3246 
 453 CL     -30.9088     4.4456    11.1399 Cl     91 CCL4  -0.0812 
 454 CL     -30.3973     1.6580    11.7424 Cl     91 CCL4  -0.0812 
 455 CL     -32.7870     2.4098    10.2843 Cl     91 CCL4  -0.0812 
 456 CL     -30.5266    14.6844   -17.6554 Cl     92 CCL4  -0.0812 
 457 C      -29.8338    15.5090   -16.2440 C.3    92 CCL4   0.3246 
 458 CL     -30.4827    14.7864   -14.7583 Cl     92 CCL4  -0.0812 
 459 CL     -30.2581    17.2320   -16.2985 Cl     92 CCL4  -0.0812 
 460 CL     -28.0675    15.3348   -16.2676 Cl     92 CCL4  -0.0812 
 461 CL      19.8560    11.8736     0.9389 Cl     93 CCL4  -0.0812 
 462 C       18.1470    12.2814     0.6765 C.3    93 CCL4   0.3246 
 463 CL      17.5323    11.3635    -0.7137 Cl     93 CCL4  -0.0812 
 464 CL      18.0068    14.0203     0.3565 Cl     93 CCL4  -0.0812 
 465 CL      17.1923    11.8733     2.1184 Cl     93 CCL4  -0.0812 
 466 CL     -18.1865     6.5775    24.1070 Cl     94 CCL4  -0.0812 
 467 C      -17.6280     5.4443    22.8601 C.3    94 CCL4   0.3246 
 468 CL     -18.5775     5.6905    21.3797 Cl     94 CCL4  -0.0812 
 469 CL     -17.8458     3.7771    23.4323 Cl     94 CCL4  -0.0812 
 470 CL     -15.9065     5.7307    22.5197 Cl     94 CCL4  -0.0812 
 471 CL      20.7764    10.9858    21.3933 Cl     95 CCL4  -0.0812 
 472 C       21.2965    10.7332    23.0725 C.3    95 CCL4   0.3246 
 473 CL      20.0913    11.4324    24.1725 Cl     95 CCL4  -0.0812 
 474 CL      22.8665    11.5241    23.3322 Cl     95 CCL4  -0.0812 
 475 CL      21.4491     8.9917    23.3883 Cl     95 CCL4  -0.0812 
 476 CL     -17.1181    16.8902   -13.4467 Cl     96 CCL4  -0.0812 
 477 C      -17.9537    15.3379   -13.2665 C.3    96 CCL4   0.3246 
 478 CL     -19.5451    15.6089   -12.5303 Cl     96 CCL4  -0.0812 
 479 CL     -16.9998    14.2753   -12.2184 Cl     96 CCL4  -0.0812 
 480 CL     -18.1449    14.5827   -14.8634 Cl     96 CCL4  -0.0812 
 481 CL     -17.5302     8.2306   -12.6513 Cl     97 CCL4  -0.0812 
 482 C      -18.6722     9.5798   -12.8350 C.3    97 CCL4   0.3246 
 483 CL     -17.8095    11.0104   -13.4340 Cl     97 CCL4  -0.0812 
 484 CL     -19.4184     9.9589   -11.2704 Cl     97 CCL4  -0.0812 
 485 CL     -19.9393     9.1248   -13.9894 Cl     97 CCL4  -0.0812 
 486 CL     -20.0190    14.6467    -8.1144 Cl     98 CCL4  -0.0812 
 487 C      -20.3057    13.1822    -7.1506 C.3    98 CCL4   0.3246 
 488 CL     -20.4116    11.7805    -8.2307 Cl     98 CCL4  -0.0812 
 489 CL     -21.8263    13.3512    -6.2528 Cl     98 CCL4  -0.0812 
 490 CL     -18.9710    12.9444    -6.0039 Cl     98 CCL4  -0.0812 
 491 CL     -15.6763     9.2464    24.1780 Cl     99 CCL4  -0.0812 
 492 C      -16.4256    10.0767    22.7967 C.3    99 CCL4   0.3246 
 493 CL     -15.6677    11.6679    22.5806 Cl     99 CCL4  -0.0812 
 494 CL     -18.1638    10.2888    23.0917 Cl     99 CCL4  -0.0812 
 495 CL     -16.1967     9.1080    21.3269 Cl     99 CCL4  -0.0812 
 496 CL     -31.5169     7.3554    -1.8311 Cl    100 CCL4  -0.0812 
 497 C      -31.3810     5.6043    -2.1004 C.3   100 CCL4   0.3246 
 498 CL     -29.6717     5.1407    -2.1870 Cl    100 CCL4  -0.0812 
 499 CL     -32.1809     5.1797    -3.6220 Cl    100 CCL4  -0.0812 
 500 CL     -32.1575     4.7306    -0.7674 Cl    100 CCL4  -0.0812 
 501 CL     -30.3226    15.3516    -3.9913 Cl    101 CCL4  -0.0812 
 502 C      -30.5231    14.2678    -2.6040 C.3   101 CCL4   0.3246 
 503 CL     -32.0014    13.3116    -2.8049 Cl    101 CCL4  -0.0812 
 504 CL     -30.6447    15.2403    -1.1286 Cl    101 CCL4  -0.0812 
 505 CL     -29.1296    13.1751    -2.4924 Cl    101 CCL4  -0.0812 
 506 CL     -17.8709     9.4005    -7.1308 Cl    102 CCL4  -0.0812 
 507 C      -18.5698     7.9082    -7.7897 C.3   102 CCL4   0.3246 
 508 CL     -17.6222     7.3949    -9.1954 Cl    102 CCL4  -0.0812 
 509 CL     -20.2552     8.1825    -8.2753 Cl    102 CCL4  -0.0812 
 510 CL     -18.5258     6.6421    -6.5531 Cl    102 CCL4  -0.0812 
 511 CL      19.9344    13.3084    -8.9647 Cl    103 CCL4  -0.0812 
 512 C       20.4294    13.8815    -7.3638 C.3   103 CCL4   0.3246 
 513 CL      20.9570    15.5739    -7.4839 Cl    103 CCL4  -0.0812 
 514 CL      21.7683    12.8785    -6.7650 Cl    103 CCL4  -0.0812 
 515 CL      19.0500    13.7610    -6.2521 Cl    103 CCL4  -0.0812 
 516 CL     -28.5006     8.7576   -10.1789 Cl    104 CCL4  -0.0812 
 517 C      -30.1581     8.6024    -9.5626 C.3   104 CCL4   0.3246 
 518 CL     -31.1366     9.9701   -10.1192 Cl    104 CCL4  -0.0812 
 519 CL     -30.1277     8.5976    -7.7901 Cl    104 CCL4  -0.0812 
 520 CL     -30.8730     7.0908   -10.1583 Cl    104 CCL4  -0.0812 
 521 CL      20.1991    10.2374    -4.7233 Cl    105 CCL4  -0.0812 
 522 C       18.6007     9.8444    -5.3874 C.3   105 CCL4   0.3246 
 523 CL      18.5077    10.3617    -7.0832 Cl    105 CCL4  -0.0812 
 524 CL      17.3533    10.6896    -4.4525 Cl    105 CCL4  -0.0812 
 525 CL      18.3404     8.0917    -5.2892 Cl    105 CCL4  -0.0812 
 526 CL     -27.6642    17.2781    -5.7263 Cl    106 CCL4  -0.0812 
 527 C      -26.6240    16.3193    -4.6523 C.3   106 CCL4   0.3246 
 528 CL     -26.8253    14.5902    -5.0123 Cl    106 CCL4  -0.0812 
 529 CL     -27.0824    16.6352    -2.9660 Cl    106 CCL4  -0.0812 
 530 CL     -24.9260    16.7786    -4.9034 Cl    106 CCL4  -0.0812 
 531 CL     -20.9717    16.5505    -4.6739 Cl    107 CCL4  -0.0812 
 532 C      -19.2731    16.5902    -4.1570 C.3   107 CCL4   0.3246 
 533 CL     -18.2116    16.4443    -5.5722 Cl    107 CCL4  -0.0812 
 534 CL     -18.9656    15.2402    -3.0469 Cl    107 CCL4  -0.0812 
 535 CL     -18.9420    18.1281    -3.3345 Cl    107 CCL4  -0.0812 
 536 CL     -23.0285     7.8015   -10.7008 Cl    108 CCL4  -0.0812 
 537 C      -22.2863     6.2567   -11.1604 C.3   108 CCL4   0.3246 
 538 CL     -22.4124     5.1189    -9.8066 Cl    108 CCL4  -0.0812 
 539 CL     -20.5776     6.5112   -11.5595 Cl    108 CCL4  -0.0812 
 540 CL     -23.1261     5.5923   -12.5746 Cl    108 CCL4  -0.0812 
 541 CL     -19.8062    18.4967    -8.6346 Cl    109 CCL4  -0.0812 
 542 C      -20.9275    19.5440    -7.7426 C.3   109 CCL4   0.3246 
 543 CL     -20.1462    20.1019    -6.2486 Cl    109 CCL4  -0.0812 
 544 CL     -22.3963    18.6326    -7.3340 Cl    109 CCL4  -0.0812 
 545 CL     -21.3601    20.9414    -8.7523 Cl    109 CCL4  -0.0812 
 546 CL      20.0023    18.8520    -3.6755 Cl    110 CCL4  -0.0812 
 547 C       18.4051    18.0792    -3.7661 C.3   110 CCL4   0.3246 
 548 CL      18.3074    17.0948    -5.2397 Cl    110 CCL4  -0.0812 
 549 CL      17.1424    19.3274    -3.8105 Cl    110 CCL4  -0.0812 
 550 CL      18.1661    17.0410    -2.3448 Cl    110 CCL4  -0.0812 
 551 CL     -25.5843    20.1275    -3.1155 Cl    111 CCL4  -0.0812 
 552 C      -26.5618    20.6293    -1.7193 C.3   111 CCL4   0.3246 
 553 CL     -25.8101    22.0428    -0.9473 Cl    111 CCL4  -0.0812 
 554 CL     -26.6513    19.2958    -0.5522 Cl    111 CCL4  -0.0812 
 555 CL     -28.2006    21.0476    -2.2632 Cl    111 CCL4  -0.0812 
 556 CL     -22.5213    21.1675   -14.4547 Cl    112 CCL4  -0.0812 
 557 C      -22.7496    22.7521   -13.6841 C.3   112 CCL4   0.3246 
 558 CL     -24.1883    23.5407   -14.3611 Cl    112 CCL4  -0.0812 
 559 CL     -21.3272    23.7678   -13.9915 Cl    112 CCL4  -0.0812 
 560 CL     -22.9604    22.5356   -11.9342 Cl    112 CCL4  -0.0812 
 561 CL     -27.4986    13.4350   -13.2477 Cl    113 CCL4  -0.0812 
 562 C      -27.8066    12.0373   -12.2006 C.3   113 CCL4   0.3246 
 563 CL     -28.7610    12.5450   -10.7962 Cl    113 CCL4  -0.0812 
 564 CL     -26.2631    11.3712   -11.6371 Cl    113 CCL4  -0.0812 
 565 CL     -28.6999    10.8036   -13.1142 Cl    113 CCL4  -0.0812 
 566 CL     -21.2979    14.5410    -0.5147 Cl    114 CCL4  -0.0812 
 567 C      -20.5172    13.8279     0.9107 C.3   114 CCL4   0.3246 
 568 CL     -21.7600    13.2655     2.0482 Cl    114 CCL4  -0.0812 
 569 CL     -19.5042    15.0559     1.6903 Cl    114 CCL4  -0.0812 
 570 CL     -19.5035    12.4568     0.4171 Cl    114 CCL4  -0.0812 
 571 CL     -21.7166    15.3383    23.9334 Cl    115 CCL4  -0.0812 
 572 C      -21.3218    16.9754    23.3666 C.3   115 CCL4   0.3246 
 573 CL     -20.5082    16.8713    21.7912 Cl    115 CCL4  -0.0812 
 574 CL     -20.2432    17.7698    24.5341 Cl    115 CCL4  -0.0812 
 575 CL     -22.8164    17.9225    23.2000 Cl    115 CCL4  -0.0812 
 576 CL     -22.8989    10.8389   -12.5782 Cl    116 CCL4  -0.0812 
 577 C      -22.3909    12.5324   -12.7231 C.3   116 CCL4   0.3246 
 578 CL     -21.9957    13.1768   -11.1176 Cl    116 CCL4  -0.0812 
 579 CL     -23.7024    13.4939   -13.4351 Cl    116 CCL4  -0.0812 
 580 CL     -20.9608    12.6207   -13.7666 Cl    116 CCL4  -0.0812 
 581 CL     -21.0611    18.8586   -12.0209 Cl    117 CCL4  -0.0812 
 582 C      -22.5554    17.9483   -11.7111 C.3   117 CCL4   0.3246 
 583 CL     -23.0535    17.0965   -13.1845 Cl    117 CCL4  -0.0812 
 584 CL     -23.8375    19.0727   -11.2189 Cl    117 CCL4  -0.0812 
 585 CL     -22.2768    16.7617   -10.4209 Cl    117 CCL4  -0.0812 
 586 CL     -25.2339    13.1539   -17.0190 Cl    118 CCL4  -0.0812 
 587 C      -24.7541    11.4793   -16.6739 C.3   118 CCL4   0.3246 
 588 CL     -25.2840    10.4199   -17.9975 Cl    118 CCL4  -0.0812 
 589 CL     -25.5116    10.9507   -15.1597 Cl    118 CCL4  -0.0812 
 590 CL     -22.9869    11.3954   -16.5184 Cl    118 CCL4  -0.0812 
 591 CL     -26.8390     7.7176   -15.7153 Cl    119 CCL4  -0.0812 
 592 C      -27.0407     7.0637   -14.0771 C.3   119 CCL4   0.3246 
 593 CL     -26.0865     8.0266   -12.9312 Cl    119 CCL4  -0.0812 
 594 CL     -26.4848     5.3803   -14.0410 Cl    119 CCL4  -0.0812 
 595 CL     -28.7541     7.1245   -13.6221 Cl    119 CCL4  -0.0812 
 596 CL     -21.7728     5.6645   -15.9897 Cl    120 CCL4  -0.0812 
 597 C      -22.4739     7.2059   -16.5266 C.3   120 CCL4   0.3246 
 598 CL     -23.1643     8.0605   -15.1327 Cl    120 CCL4  -0.0812 
 599 CL     -23.7524     6.8955   -17.7177 Cl    120 CCL4  -0.0812 
 600 CL     -21.2104     8.2048   -17.2739 Cl    120 CCL4  -0.0812 
 601 CL     -24.5176    14.6092    -8.2204 Cl    121 CCL4  -0.0812 
 602 C      -25.7526    15.5461    -9.0854 C.3   121 CCL4   0.3246 
 603 CL     -27.3663    15.0011    -8.5933 Cl    121 CCL4  -0.0812 
 604 CL     -25.5613    15.3084   -10.8335 Cl    121 CCL4  -0.0812 
 605 CL     -25.5708    17.2673    -8.6941 Cl    121 CCL4  -0.0812 
 606 CL     -28.6155    18.4328   -10.5102 Cl    122 CCL4  -0.0812 
 607 C      -29.2503    17.4138   -11.8195 C.3   122 CCL4   0.3246 
 608 CL     -29.8537    15.8886   -11.1424 Cl    122 CCL4  -0.0812 
 609 CL     -27.9537    17.0725   -12.9825 Cl    122 CCL4  -0.0812 
 610 CL     -30.5779    18.2586   -12.6438 Cl    122 CCL4  -0.0812 
 611 CL     -26.5162    11.5350    -8.0151 Cl    123 CCL4  -0.0812 
 612 C      -25.0959    10.5080    -7.7324 C.3   123 CCL4   0.3246 
 613 CL     -23.8433    10.8901    -8.9292 Cl    123 CCL4  -0.0812 
 614 CL     -25.5652     8.8012    -7.8887 Cl    123 CCL4  -0.0812 
 615 CL     -24.4586    10.8124    -6.1017 Cl    123 CCL4  -0.0812 
 616 CL     -23.5847     4.9322    -4.2540 Cl    124 CCL4  -0.0812 
 617 C      -22.2842     5.7947    -5.1063 C.3   124 CCL4   0.3246 
 618 CL     -22.9433     7.2285    -5.9181 Cl    124 CCL4  -0.0812 
 619 CL     -21.5493     4.7229    -6.3122 Cl    124 CCL4  -0.0812 
 620 CL     -21.0453     6.3010    -3.9440 Cl    124 CCL4  -0.0812 
 621 CL     -23.1694    19.7738     0.3807 Cl    125 CCL4  -0.0812 
 622 C      -22.2566    18.9568    -0.9072 C.3   125 CCL4   0.3246 
 623 CL     -21.9092    20.1159    -2.2085 Cl    125 CCL4  -0.0812 
 624 CL     -23.2192    17.6099    -1.5565 Cl    125 CCL4  -0.0812 
 625 CL     -20.7303    18.3317    -0.2438 Cl    125 CCL4  -0.0812 
 626 CL     -23.7211    12.0013    -0.7184 Cl    126 CCL4  -0.0812 
 627 C      -24.7465    12.8675    -1.8794 C.3   126 CCL4   0.3246 
 628 CL     -25.8723    11.7227    -2.6354 Cl    126 CCL4  -0.0812 
 629 CL     -23.7453    13.6248    -3.1343 Cl    126 CCL4  -0.0812 
 630 CL     -25.6530    14.1278    -1.0249 Cl    126 CCL4  -0.0812 
 631 CL     -28.2992     8.8092    -2.5723 Cl    127 CCL4  -0.0812 
 632 C      -27.6981     8.5287    -4.2184 C.3   127 CCL4   0.3246 
 633 CL     -28.5459     7.1400    -4.9298 Cl    127 CCL4  -0.0812 
 634 CL     -25.9558     8.1933    -4.1716 Cl    127 CCL4  -0.0812 
 635 CL     -27.9905     9.9775    -5.1996 Cl    127 CCL4  -0.0812 
 636 CL     -20.7723    11.8474    -2.9846 Cl    128 CCL4  -0.0812 
 637 C      -20.9257    10.1255    -3.3780 C.3   128 CCL4   0.3246 
 638 CL     -19.7055     9.2043    -2.4740 Cl    128 CCL4  -0.0812 
 639 CL     -20.6745     9.8944    -5.1155 Cl    128 CCL4  -0.0812 
 640 CL     -22.5533     9.5615    -2.9524 Cl    128 CCL4  -0.0812 
 641 CL     -25.3170     8.6509    -0.5435 Cl    129 CCL4  -0.0812 
 642 C      -24.8779     6.9337    -0.4492 C.3   129 CCL4   0.3246 
 643 CL     -23.2076     6.7171    -1.0043 Cl    129 CCL4  -0.0812 
 644 CL     -25.9684     5.9843    -1.4776 Cl    129 CCL4  -0.0812 
 645 CL     -25.0126     6.3788     1.2304 Cl    129 CCL4  -0.0812 
 646 CL     -25.5680    19.1990    25.3131 Cl    130 CCL4  -0.0812 
 647 C      -26.6991    19.8393    24.1047 C.3   130 CCL4   0.3246 
 648 CL     -26.0891    21.3869    23.4833 Cl    130 CCL4  -0.0812 
 649 CL     -28.2900    20.0889    24.8546 Cl    130 CCL4  -0.0812 
 650 CL     -26.8473    18.6818    22.7657 Cl    130 CCL4  -0.0812 
 651 CL     -27.8197    23.5123   -13.7386 Cl    131 CCL4  -0.0812 
 652 C      -27.4233    23.0202   -12.0781 C.3   131 CCL4   0.3246 
 653 CL     -28.9081    22.9884   -11.1026 Cl    131 CCL4  -0.0812 
 654 CL     -26.2718    24.1746   -11.3760 Cl    131 CCL4  -0.0812 
 655 CL     -26.6921    21.4021   -12.0933 Cl    131 CCL4  -0.0812 
 656 CL     -31.2058    14.6648     3.3176 Cl    132 CCL4  -0.0812 
 657 C      -30.2789    15.3486     4.6695 C.3   132 CCL4   0.3246 
 658 CL     -30.1479    14.1480     5.9698 Cl    132 CCL4  -0.0812 
 659 CL     -31.1120    16.7962     5.2748 Cl    132 CCL4  -0.0812 
 660 CL     -28.6481    15.7840     4.1188 Cl    132 CCL4  -0.0812 
 661 CL     -16.6307     4.1899     4.9293 Cl    133 CCL4  -0.0812 
 662 C      -17.1273     5.5519     3.9054 C.3   133 CCL4   0.3246 
 663 CL     -18.8961     5.5739     3.7571 Cl    133 CCL4  -0.0812 
 664 CL     -16.3985     5.3782     2.2935 Cl    133 CCL4  -0.0812 
 665 CL     -16.5837     7.0704     4.6472 Cl    133 CCL4  -0.0812 
 666 CL     -28.4326    13.8600     1.1006 Cl    134 CCL4  -0.0812 
 667 C      -27.8824    12.2904     1.7110 C.3   134 CCL4   0.3246 
 668 CL     -28.1100    11.0490     0.4612 Cl    134 CCL4  -0.0812 
 669 CL     -28.8278    11.8630     3.1513 Cl    134 CCL4  -0.0812 
 670 CL     -26.1609    12.3978     2.1307 Cl    134 CCL4  -0.0812 
 671 CL      19.5964    11.3718     4.7896 Cl    135 CCL4  -0.0812 
 672 C       19.1840     9.6472     4.7289 C.3   135 CCL4   0.3246 
 673 CL      17.5325     9.3963     5.3289 Cl    135 CCL4  -0.0812 
 674 CL      20.3283     8.7385     5.7355 Cl    135 CCL4  -0.0812 
 675 CL      19.2794     9.0817     3.0525 Cl    135 CCL4  -0.0812 
 676 CL     -15.5495    16.3737    10.8196 Cl    136 CCL4  -0.0812 
 677 C      -16.1546    15.0322     9.8270 C.3   136 CCL4   0.3246 
 678 CL     -17.4645    14.1967    10.6888 Cl    136 CCL4  -0.0812 
 679 CL     -14.8335    13.8901     9.5063 Cl    136 CCL4  -0.0812 
 680 CL     -16.7687    15.6716     8.2907 Cl    136 CCL4  -0.0812 
 681 CL     -15.9901     7.9426    10.5717 Cl    137 CCL4  -0.0812 
 682 C      -16.7495     8.5165     9.0755 C.3   137 CCL4   0.3246 
 683 CL     -15.5347     9.3381     8.0797 Cl    137 CCL4  -0.0812 
 684 CL     -18.0562     9.6518     9.4798 Cl    137 CCL4  -0.0812 
 685 CL     -17.4046     7.1340     8.1726 Cl    137 CCL4  -0.0812 
 686 CL     -18.5629    10.1543     6.0080 Cl    138 CCL4  -0.0812 
 687 C      -17.4918    11.4121     5.3566 C.3   138 CCL4   0.3246 
 688 CL     -16.9196    12.4523     6.6751 Cl    138 CCL4  -0.0812 
 689 CL     -18.3788    12.3891     4.1683 Cl    138 CCL4  -0.0812 
 690 CL     -16.0970    10.6492     4.5745 Cl    138 CCL4  -0.0812 
 691 CL      18.7337    11.2703    11.4601 Cl    139 CCL4  -0.0812 
 692 C       17.7474    12.5922    12.1172 C.3   139 CCL4   0.3246 
 693 CL      18.1477    14.1023    11.2732 Cl    139 CCL4  -0.0812 
 694 CL      18.0866    12.7715    13.8512 Cl    139 CCL4  -0.0812 
 695 CL      16.0245    12.2267    11.8880 Cl    139 CCL4  -0.0812 
 696 CL     -30.7222     9.2131    14.6240 Cl    140 CCL4  -0.0812 
 697 C      -31.6491     8.0577    13.6440 C.3   140 CCL4   0.3246 
 698 CL     -31.1294     8.1782    11.9499 Cl    140 CCL4  -0.0812 
 699 CL     -33.3813     8.4355    13.7673 Cl    140 CCL4  -0.0812 
 700 CL     -31.3611     6.4076    14.2371 Cl    140 CCL4  -0.0812 
 701 CL     -20.8709     7.2653     9.1933 Cl    141 CCL4  -0.0812 
 702 C      -20.8362     6.0193    10.4584 C.3   141 CCL4   0.3246 
 703 CL     -21.9340     6.4769    11.7764 Cl    141 CCL4  -0.0812 
 704 CL     -19.1879     5.8728    11.1024 Cl    141 CCL4  -0.0812 
 705 CL     -21.3522     4.4667     9.7669 Cl    141 CCL4  -0.0812 
 706 CL     -18.7118    17.4649    12.3202 Cl    142 CCL4  -0.0812 
 707 C      -19.6707    18.5428    13.3568 C.3   142 CCL4   0.3246 
 708 CL     -18.7514    18.9232    14.8286 Cl    142 CCL4  -0.0812 
 709 CL     -21.1953    17.7425    13.7928 Cl    142 CCL4  -0.0812 
 710 CL     -20.0277    20.0453    12.4841 Cl    142 CCL4  -0.0812 
 711 CL      22.2956    17.6364     1.1628 Cl    143 CCL4  -0.0812 
 712 C       20.7898    18.5717     1.2393 C.3   143 CCL4   0.3246 
 713 CL      19.4011    17.4647     1.2336 Cl    143 CCL4  -0.0812 
 714 CL      20.6927    19.6499    -0.1670 Cl    143 CCL4  -0.0812 
 715 CL      20.7734    19.5391     2.7273 Cl    143 CCL4  -0.0812 
 716 CL     -24.9945    21.0153     5.8129 Cl    144 CCL4  -0.0812 
 717 C      -23.5246    21.7894     6.4352 C.3   144 CCL4   0.3246 
 718 CL     -23.4426    23.4595     5.8461 Cl    144 CCL4  -0.0812 
 719 CL     -22.1001    20.8914     5.8680 Cl    144 CCL4  -0.0812 
 720 CL     -23.5671    21.7969     8.2108 Cl    144 CCL4  -0.0812 
 721 CL     -27.7250    13.1511     9.1090 Cl    145 CCL4  -0.0812 
 722 C      -29.1163    12.0619     9.2767 C.3   145 CCL4   0.3246 
 723 CL     -30.5975    13.0313     9.4020 Cl    145 CCL4  -0.0812 
 724 CL     -28.9238    11.0758    10.7429 Cl    145 CCL4  -0.0812 
 725 CL     -29.2183    10.9981     7.8557 Cl    145 CCL4  -0.0812 
 726 CL     -20.9495    15.2787     4.9751 Cl    146 CCL4  -0.0812 
 727 C      -19.7330    16.5561     5.1827 C.3   146 CCL4   0.3246 
 728 CL     -18.1165    15.9156     4.8299 Cl    146 CCL4  -0.0812 
 729 CL     -19.7692    17.1272     6.8579 Cl    146 CCL4  -0.0812 
 730 CL     -20.0944    17.9079     4.0870 Cl    146 CCL4  -0.0812 
 731 CL     -21.6247    11.2718     8.1860 Cl    147 CCL4  -0.0812 
 732 C      -21.4894    12.9807     8.6494 C.3   147 CCL4   0.3246 
 733 CL     -21.5046    13.1173    10.4201 Cl    147 CCL4  -0.0812 
 734 CL     -22.8535    13.8942     7.9701 Cl    147 CCL4  -0.0812 
 735 CL     -19.9667    13.6401     8.0221 Cl    147 CCL4  -0.0812 
 736 CL     -20.9674    19.5250     9.1151 Cl    148 CCL4  -0.0812 
 737 C      -22.2179    18.3030     9.4260 C.3   148 CCL4   0.3246 
 738 CL     -23.0995    17.9571     7.9222 Cl    148 CCL4  -0.0812 
 739 CL     -23.3442    18.9218    10.6497 Cl    148 CCL4  -0.0812 
 740 CL     -21.4615    16.8117    10.0254 Cl    148 CCL4  -0.0812 
 741 CL     -30.7390     6.1581     2.3540 Cl    149 CCL4  -0.0812 
 742 C      -29.0667     6.7496     2.3230 C.3   149 CCL4   0.3246 
 743 CL     -28.0089     5.5769     3.1323 Cl    149 CCL4  -0.0812 
 744 CL     -28.9577     8.3098     3.1569 Cl    149 CCL4  -0.0812 
 745 CL     -28.5581     6.9620     0.6401 Cl    149 CCL4  -0.0812 
 746 CL     -21.0130    10.1584     3.4319 Cl    150 CCL4  -0.0812 
 747 C      -21.9860     9.2067     2.2976 C.3   150 CCL4   0.3246 
 748 CL     -21.8643     7.4961     2.7308 Cl    150 CCL4  -0.0812 
 749 CL     -21.3845     9.4412     0.6462 Cl    150 CCL4  -0.0812 
 750 CL     -23.6805     9.7185     2.3878 Cl    150 CCL4  -0.0812 
 751 CL     -26.5979    12.8351     5.7496 Cl    151 CCL4  -0.0812 
 752 C      -25.5223    11.4257     5.8455 C.3   151 CCL4   0.3246 
 753 CL     -26.2057    10.0852     4.9049 Cl    151 CCL4  -0.0812 
 754 CL     -25.3647    10.9225     7.5364 Cl    151 CCL4  -0.0812 
 755 CL     -23.9223    11.8538     5.2036 Cl    151 CCL4  -0.0812 
 756 CL     -27.9858     7.4042     6.4960 Cl    152 CCL4  -0.0812 
 757 C      -28.1843     6.9559     8.2000 C.3   152 CCL4   0.3246 
 758 CL     -27.1950     8.0346     9.2033 Cl    152 CCL4  -0.0812 
 759 CL     -27.6700     5.2717     8.4284 Cl    152 CCL4  -0.0812 
 760 CL     -29.8874     7.1180     8.6695 Cl    152 CCL4  -0.0812 
 761 CL     -22.9572    16.5708     1.9783 Cl    153 CCL4  -0.0812 
 762 C      -24.4684    16.6123     2.9018 C.3   153 CCL4   0.3246 
 763 CL     -24.5524    15.1896     3.9556 Cl    153 CCL4  -0.0812 
 764 CL     -25.8456    16.6024     1.7837 Cl    153 CCL4  -0.0812 
 765 CL     -24.5107    18.0850     3.8902 Cl    153 CCL4  -0.0812 
 766 CL     -22.1307     5.6942     5.8400 Cl    154 CCL4  -0.0812 
 767 C      -23.5141     6.7552     6.1691 C.3   154 CCL4   0.3246 
 768 CL     -24.2399     6.3080     7.7246 Cl    154 CCL4  -0.0812 
 769 CL     -24.7231     6.5786     4.8808 Cl    154 CCL4  -0.0812 
 770 CL     -22.9599     8.4402     6.2334 Cl    154 CCL4  -0.0812 
 771 CL     -23.8573    15.1856    12.7590 Cl    155 CCL4  -0.0812 
 772 C      -25.3912    15.5692    11.9489 C.3   155 CCL4   0.3246 
 773 CL     -26.6222    14.3708    12.4022 Cl    155 CCL4  -0.0812 
 774 CL     -25.1477    15.5374    10.1918 Cl    155 CCL4  -0.0812 
 775 CL     -25.9388    17.1857    12.4405 Cl    155 CCL4  -0.0812 
 776 CL     -26.5988    18.6554     8.7309 Cl    156 CCL4  -0.0812 
 777 C      -27.3899    17.6393     7.5069 C.3   156 CCL4   0.3246 
 778 CL     -28.7656    16.7883     8.2427 Cl    156 CCL4  -0.0812 
 779 CL     -26.2312    16.4496     6.8797 Cl    156 CCL4  -0.0812 
 780 CL     -27.9649    18.6622     6.1732 Cl    156 CCL4  -0.0812 
 781 CL     -24.7963    11.6332    10.9529 Cl    157 CCL4  -0.0812 
 782 C      -24.2745    10.0248    11.4945 C.3   157 CCL4   0.3246 
 783 CL     -23.8465     9.0343    10.0872 Cl    157 CCL4  -0.0812 
 784 CL     -25.5958     9.2424    12.3887 Cl    157 CCL4  -0.0812 
 785 CL     -22.8550    10.1884    12.5491 Cl    157 CCL4  -0.0812 
 786 CL     -27.3668    20.2562     2.8493 Cl    158 CCL4  -0.0812 
 787 C      -27.8162    21.9741     2.8403 C.3   158 CCL4   0.3246 
 788 CL     -26.3476    22.9629     3.0021 Cl    158 CCL4  -0.0812 
 789 CL     -28.9169    22.3051     4.1940 Cl    158 CCL4  -0.0812 
 790 CL     -28.6381    22.3692     1.3156 Cl    158 CCL4  -0.0812 
 791 CL     -27.7723    24.7371     6.4567 Cl    159 CCL4  -0.0812 
 792 C      -27.7262    23.8348     7.9840 C.3   159 CCL4   0.3246 
 793 CL     -29.1412    24.2670     8.9607 Cl    159 CCL4  -0.0812 
 794 CL     -26.2405    24.2424     8.8677 Cl    159 CCL4  -0.0812 
 795 CL     -27.7596    22.0917     7.6549 Cl    159 CCL4  -0.0812 
 796 CL     -17.7493    -5.7110   -15.4816 Cl    160 CCL4  -0.0812 
 797 C      -17.8299    -4.0063   -14.9885 C.3   160 CCL4   0.3246 
 798 CL     -19.4477    -3.3678   -15.3431 Cl    160 CCL4  -0.0812 
 799 CL     -16.6206    -3.0754   -15.8967 Cl    160 CCL4  -0.0812 
 800 CL     -17.5061    -3.8701   -13.2451 Cl    160 CCL4  -0.0812 
 801 CL      -2.7447    -7.4249   -19.0385 Cl    161 CCL4  -0.0812 
 802 C       -2.4099    -7.1623   -17.3136 C.3   161 CCL4   0.3246 
 803 CL      -3.5739    -8.0737   -16.3314 Cl    161 CCL4  -0.0812 
 804 CL      -2.5525    -5.4331   -16.9353 Cl    161 CCL4  -0.0812 
 805 CL      -0.7661    -7.7191   -16.9467 Cl    161 CCL4  -0.0812 
 806 CL      -7.9852    24.6689   -12.2117 Cl    162 CCL4  -0.0812 
 807 C       -7.8200    26.0874   -13.2665 C.3   162 CCL4   0.3246 
 808 CL      -8.3717    25.6717   -14.9023 Cl    162 CCL4  -0.0812 
 809 CL      -6.1168    26.5853   -13.3243 Cl    162 CCL4  -0.0812 
 810 CL      -8.8055    27.4205   -12.6291 Cl    162 CCL4  -0.0812 
 811 CL     -14.3292    -5.4114   -13.9898 Cl    163 CCL4  -0.0812 
 812 C      -13.5862    -7.0094   -14.1900 C.3   163 CCL4   0.3246 
 813 CL     -13.3225    -7.7307   -12.5903 Cl    163 CCL4  -0.0812 
 814 CL     -12.0343    -6.8468   -15.0381 Cl    163 CCL4  -0.0812 
 815 CL     -14.6640    -8.0478   -15.1444 Cl    163 CCL4  -0.0812 
 816 CL      -4.9664   -14.1648    -2.0969 Cl    164 CCL4  -0.0812 
 817 C       -6.6364   -13.9446    -1.5378 C.3   164 CCL4   0.3246 
 818 CL      -7.6447   -13.4588    -2.9147 Cl    164 CCL4  -0.0812 
 819 CL      -6.6893   -12.6876    -0.2837 Cl    164 CCL4  -0.0812 
 820 CL      -7.2419   -15.4717    -0.8640 Cl    164 CCL4  -0.0812 
 821 CL     -13.0592     2.6093   -15.2068 Cl    165 CCL4  -0.0812 
 822 C      -11.9711     3.7576   -14.3973 C.3   165 CCL4   0.3246 
 823 CL     -12.4527     3.9378   -12.6970 Cl    165 CCL4  -0.0812 
 824 CL     -12.0577     5.3314   -15.2146 Cl    165 CCL4  -0.0812 
 825 CL     -10.3070     3.1510   -14.4747 Cl    165 CCL4  -0.0812 
 826 CL      -7.0836    -8.0800   -15.7144 Cl    166 CCL4  -0.0812 
 827 C       -7.6519    -9.4614   -14.7594 C.3   166 CCL4   0.3246 
 828 CL      -6.4642    -9.8405   -13.4948 Cl    166 CCL4  -0.0812 
 829 CL      -7.8555   -10.8658   -15.8256 Cl    166 CCL4  -0.0812 
 830 CL      -9.2084    -9.0574   -14.0093 Cl    166 CCL4  -0.0812 
 831 CL     -12.7808    23.9151   -12.8783 Cl    167 CCL4  -0.0812 
 832 C      -13.2514    25.1554   -11.6973 C.3   167 CCL4   0.3246 
 833 CL     -11.8268    26.1135   -11.2488 Cl    167 CCL4  -0.0812 
 834 CL     -13.9128    24.3780   -10.2495 Cl    167 CCL4  -0.0812 
 835 CL     -14.4881    26.2138   -12.4050 Cl    167 CCL4  -0.0812 
 836 CL       3.8758     0.3285   -16.4900 Cl    168 CCL4  -0.0812 
 837 C        3.8521     2.1020   -16.4035 C.3   168 CCL4   0.3246 
 838 CL       4.2970     2.6223   -14.7650 Cl    168 CCL4  -0.0812 
 839 CL       2.2232     2.6944   -16.7896 Cl    168 CCL4  -0.0812 
 840 CL       5.0130     2.7631   -17.5737 Cl    168 CCL4  -0.0812 
 841 CL      -2.7963     6.3353   -18.2157 Cl    169 CCL4  -0.0812 
 842 C       -4.2461     5.3523   -17.9248 C.3   169 CCL4   0.3246 
 843 CL      -4.7584     4.5795   -19.4381 Cl    169 CCL4  -0.0812 
 844 CL      -5.5507     6.3950   -17.3229 Cl    169 CCL4  -0.0812 
 845 CL      -3.8770     4.0980   -16.7240 Cl    169 CCL4  -0.0812 
 846 CL      -9.6860     5.3046    21.5218 Cl    170 CCL4  -0.0812 
 847 C       -9.0548     5.1810    19.8636 C.3   170 CCL4   0.3246 
 848 CL      -7.8194     6.4268    19.6035 Cl    170 CCL4  -0.0812 
 849 CL     -10.3780     5.4137    18.7013 Cl    170 CCL4  -0.0812 
 850 CL      -8.3310     3.5784    19.6189 Cl    170 CCL4  -0.0812 
 851 CL     -10.0284    -8.8137     0.4930 Cl    171 CCL4  -0.0812 
 852 C      -10.0430    -9.1441    -1.2508 C.3   171 CCL4   0.3246 
 853 CL      -8.9746    -8.0038    -2.0883 Cl    171 CCL4  -0.0812 
 854 CL     -11.6885    -8.9675    -1.8791 Cl    171 CCL4  -0.0812 
 855 CL      -9.4886   -10.8017    -1.5391 Cl    171 CCL4  -0.0812 
 856 CL     -16.7731    -9.4777     0.3477 Cl    172 CCL4  -0.0812 
 857 C      -15.1949    -9.1930    -0.4182 C.3   172 CCL4   0.3246 
 858 CL     -13.9069    -9.3430     0.7965 Cl    172 CCL4  -0.0812 
 859 CL     -15.1541    -7.5593    -1.1152 Cl    172 CCL4  -0.0812 
 860 CL     -14.9442   -10.3947    -1.7032 Cl    172 CCL4  -0.0812 
 861 CL      -5.5289   -10.0569    21.2497 Cl    173 CCL4  -0.0812 
 862 C       -4.4529   -11.4720    21.2775 C.3   173 CCL4   0.3246 
 863 CL      -5.0518   -12.6544    22.4625 Cl    173 CCL4  -0.0812 
 864 CL      -2.8146   -10.9618    21.7282 Cl    173 CCL4  -0.0812 
 865 CL      -4.4101   -12.2160    19.6650 Cl    173 CCL4  -0.0812 
 866 CL      -7.7630    -4.4593    19.8712 Cl    174 CCL4  -0.0812 
 867 C       -6.9276    -5.9746    20.2746 C.3   174 CCL4   0.3246 
 868 CL      -8.1207    -7.2031    20.7475 Cl    174 CCL4  -0.0812 
 869 CL      -5.8115    -5.6890    21.6237 Cl    174 CCL4  -0.0812 
 870 CL      -6.0171    -6.5474    18.8600 Cl    174 CCL4  -0.0812 
 871 CL     -11.8146   -13.1962   -15.1347 Cl    175 CCL4  -0.0812 
 872 C      -12.5095   -11.5693   -14.9863 C.3   175 CCL4   0.3246 
 873 CL     -11.7413   -10.4853   -16.1654 Cl    175 CCL4  -0.0812 
 874 CL     -12.2241   -10.9582   -13.3447 Cl    175 CCL4  -0.0812 
 875 CL     -14.2565   -11.6418   -15.3013 Cl    175 CCL4  -0.0812 
 876 CL       8.3336    -8.3691   -12.7981 Cl    176 CCL4  -0.0812 
 877 C        7.9541   -10.0934   -12.6341 C.3   176 CCL4   0.3246 
 878 CL       6.7112   -10.2966   -11.3875 Cl    176 CCL4  -0.0812 
 879 CL       9.4150   -10.9864   -12.1618 Cl    176 CCL4  -0.0812 
 880 CL       7.3512   -10.7171   -14.1838 Cl    176 CCL4  -0.0812 
 881 CL       7.7286    23.6467   -10.6566 Cl    177 CCL4  -0.0812 
 882 C        6.7822    25.0638   -11.1555 C.3   177 CCL4   0.3246 
 883 CL       7.5565    25.8298   -12.5578 Cl    177 CCL4  -0.0812 
 884 CL       6.7048    26.2276    -9.8162 Cl    177 CCL4  -0.0812 
 885 CL       5.1408    24.5477   -11.5946 Cl    177 CCL4  -0.0812 
 886 CL       6.7396    -9.1498    -7.1400 Cl    178 CCL4  -0.0812 
 887 C        5.5300   -10.4388    -6.9979 C.3   178 CCL4   0.3246 
 888 CL       4.7048   -10.6481    -8.5545 Cl    178 CCL4  -0.0812 
 889 CL       4.3481    -9.9909    -5.7577 Cl    178 CCL4  -0.0812 
 890 CL       6.3210   -11.9582    -6.5310 Cl    178 CCL4  -0.0812 
 891 CL     -15.5996     5.1068   -13.9451 Cl    179 CCL4  -0.0812 
 892 C      -16.4101     4.1767   -12.6708 C.3   179 CCL4   0.3246 
 893 CL     -18.1677     4.2455   -12.9095 Cl    179 CCL4  -0.0812 
 894 CL     -15.9966     4.8721   -11.0941 Cl    179 CCL4  -0.0812 
 895 CL     -15.8728     2.4859   -12.7339 Cl    179 CCL4  -0.0812 
 896 CL       1.3498   -11.6762    17.7571 Cl    180 CCL4  -0.0812 
 897 C        2.0741   -10.2529    18.5365 C.3   180 CCL4   0.3246 
 898 CL       3.1842   -10.7827    19.8193 Cl    180 CCL4  -0.0812 
 899 CL       0.7907    -9.2431    19.2398 Cl    180 CCL4  -0.0812 
 900 CL       2.9761    -9.3118    17.3286 Cl    180 CCL4  -0.0812 
 901 CL     -11.9587    22.9942    -7.6533 Cl    181 CCL4  -0.0812 
 902 C      -11.3111    21.9098    -8.9041 C.3   181 CCL4   0.3246 
 903 CL     -12.6458    21.0242    -9.6753 Cl    181 CCL4  -0.0812 
 904 CL     -10.1788    20.7594    -8.1635 Cl    181 CCL4  -0.0812 
 905 CL     -10.4537    22.8659   -10.1295 Cl    181 CCL4  -0.0812 
 906 CL      -6.3785    -8.0215    -4.6620 Cl    182 CCL4  -0.0812 
 907 C       -5.1902    -8.7302    -3.5522 C.3   182 CCL4   0.3246 
 908 CL      -5.9935    -9.8684    -2.4527 Cl    182 CCL4  -0.0812 
 909 CL      -4.4256    -7.4313    -2.6185 Cl    182 CCL4  -0.0812 
 910 CL      -3.9581    -9.5996    -4.4825 Cl    182 CCL4  -0.0812 
 911 CL       6.2194    24.2096    -6.6973 Cl    183 CCL4  -0.0812 
 912 C        5.7585    22.5672    -7.1944 C.3   183 CCL4   0.3246 
 913 CL       7.2182    21.6430    -7.6061 Cl    183 CCL4  -0.0812 
 914 CL       4.6916    22.6576    -8.6110 Cl    183 CCL4  -0.0812 
 915 CL       4.9056    21.7562    -5.8633 Cl    183 CCL4  -0.0812 
 916 CL      -7.3569   -10.6106    -9.8572 Cl    184 CCL4  -0.0812 
 917 C       -6.3345    -9.5779    -8.8365 C.3   184 CCL4   0.3246 
 918 CL      -5.0831    -8.8138    -9.8351 Cl    184 CCL4  -0.0812 
 919 CL      -5.5614   -10.5625    -7.5788 Cl    184 CCL4  -0.0812 
 920 CL      -7.3346    -8.3257    -8.0727 Cl    184 CCL4  -0.0812 
 921 CL      -7.8260    -7.0281   -11.4481 Cl    185 CCL4  -0.0812 
 922 C       -9.4781    -6.6366   -10.9315 C.3   185 CCL4   0.3246 
 923 CL      -9.4306    -5.6700    -9.4447 Cl    185 CCL4  -0.0812 
 924 CL     -10.3650    -8.1455   -10.6267 Cl    185 CCL4  -0.0812 
 925 CL     -10.2862    -5.6985   -12.2040 Cl    185 CCL4  -0.0812 
 926 CL      -2.4786    25.0754   -10.3363 Cl    186 CCL4  -0.0812 
 927 C       -3.8361    25.9078    -9.5471 C.3   186 CCL4   0.3246 
 928 CL      -4.1754    27.4336   -10.3882 Cl    186 CCL4  -0.0812 
 929 CL      -3.4164    26.2511    -7.8552 Cl    186 CCL4  -0.0812 
 930 CL      -5.2775    24.8714    -9.6058 Cl    186 CCL4  -0.0812 
 931 CL      -7.0011    26.2841    -6.6042 Cl    187 CCL4  -0.0812 
 932 C       -8.4512    25.4886    -7.2489 C.3   187 CCL4   0.3246 
 933 CL      -8.7783    26.0856    -8.8894 Cl    187 CCL4  -0.0812 
 934 CL      -9.8400    25.8525    -6.2061 Cl    187 CCL4  -0.0812 
 935 CL      -8.1870    23.7327    -7.2905 Cl    187 CCL4  -0.0812 
 936 CL      -2.2672    -4.5635    -7.8173 Cl    188 CCL4  -0.0812 
 937 C       -2.1281    -5.9050    -6.6679 C.3   188 CCL4   0.3246 
 938 CL      -3.2757    -7.1878    -7.1031 Cl    188 CCL4  -0.0812 
 939 CL      -2.4877    -5.3201    -5.0313 Cl    188 CCL4  -0.0812 
 940 CL      -0.4757    -6.5451    -6.7221 Cl    188 CCL4  -0.0812 
 941 CL     -11.4067   -11.0362    -4.8880 Cl    189 CCL4  -0.0812 
 942 C      -10.1210   -10.2003    -5.7838 C.3   189 CCL4   0.3246 
 943 CL     -10.2547   -10.5768    -7.5134 Cl    189 CCL4  -0.0812 
 944 CL      -8.5407   -10.7403    -5.1859 Cl    189 CCL4  -0.0812 
 945 CL     -10.2752    -8.4487    -5.5464 Cl    189 CCL4  -0.0812 
 946 CL       5.4351    -7.0989    -3.9232 Cl    190 CCL4  -0.0812 
 947 C        6.9853    -7.5636    -3.1918 C.3   190 CCL4   0.3246 
 948 CL       8.3040    -6.6843    -3.9895 Cl    190 CCL4  -0.0812 
 949 CL       7.2406    -9.3103    -3.3922 Cl    190 CCL4  -0.0812 
 950 CL       6.9654    -7.1590    -1.4622 Cl    190 CCL4  -0.0812 
 951 CL     -13.0946   -10.8554    -9.6897 Cl    191 CCL4  -0.0812 
 952 C      -13.9690   -11.7129    -8.4033 C.3   191 CCL4   0.3246 
 953 CL     -15.5145   -12.3078    -9.0428 Cl    191 CCL4  -0.0812 
 954 CL     -14.2731   -10.6058    -7.0469 Cl    191 CCL4  -0.0812 
 955 CL     -12.9962   -13.0857    -7.8339 Cl    191 CCL4  -0.0812 
 956 CL       6.2272     1.9402    -6.7671 Cl    192 CCL4  -0.0812 
 957 C        6.7751     2.9628    -8.1107 C.3   192 CCL4   0.3246 
 958 CL       7.5404     4.4253    -7.4634 Cl    192 CCL4  -0.0812 
 959 CL       5.3900     3.4191    -9.1187 Cl    192 CCL4  -0.0812 
 960 CL       7.9435     2.0688    -9.0993 Cl    192 CCL4  -0.0812 
 961 CL      -9.0496    21.5331    -2.1370 Cl    193 CCL4  -0.0812 
 962 C      -10.3450    22.2828    -3.0926 C.3   193 CCL4   0.3246 
 963 CL     -11.9167    21.9512    -2.3409 Cl    193 CCL4  -0.0812 
 964 CL     -10.3263    21.6202    -4.7366 Cl    193 CCL4  -0.0812 
 965 CL     -10.0949    24.0359    -3.1605 Cl    193 CCL4  -0.0812 
 966 CL      -7.1488    -2.6874   -16.7668 Cl    194 CCL4  -0.0812 
 967 C       -7.7971    -3.8005   -15.5448 C.3   194 CCL4   0.3246 
 968 CL      -8.9233    -4.9398   -16.3116 Cl    194 CCL4  -0.0812 
 969 CL      -8.6535    -2.8794   -14.2919 Cl    194 CCL4  -0.0812 
 970 CL      -6.4577    -4.6971   -14.8070 Cl    194 CCL4  -0.0812 
 971 CL      -8.7934     0.4522    -8.8821 Cl    195 CCL4  -0.0812 
 972 C       -8.7350     0.0984   -10.6226 C.3   195 CCL4   0.3246 
 973 CL      -9.6927    -1.3551   -10.9782 Cl    195 CCL4  -0.0812 
 974 CL      -7.0553    -0.1759   -11.1036 Cl    195 CCL4  -0.0812 
 975 CL      -9.3776     1.4753   -11.5378 Cl    195 CCL4  -0.0812 
 976 CL     -12.7944     0.3317   -12.0880 Cl    196 CCL4  -0.0812 
 977 C      -13.9038    -1.0349   -12.3117 C.3   196 CCL4   0.3246 
 978 CL     -13.0047    -2.5591   -12.1551 Cl    196 CCL4  -0.0812 
 979 CL     -14.6349    -0.9354   -13.9237 Cl    196 CCL4  -0.0812 
 980 CL     -15.1863    -0.9723   -11.0872 Cl    196 CCL4  -0.0812 
 981 CL       7.6344    -3.2931    -2.4910 Cl    197 CCL4  -0.0812 
 982 C        8.1477    -3.0493    -0.8096 C.3   197 CCL4   0.3246 
 983 CL       6.9839    -3.8367     0.2680 Cl    197 CCL4  -0.0812 
 984 CL       8.2074    -1.3155    -0.4343 Cl    197 CCL4  -0.0812 
 985 CL       9.7565    -3.7590    -0.5711 Cl    197 CCL4  -0.0812 
 986 CL      -6.8379     0.6987   -18.1893 Cl    198 CCL4  -0.0812 
 987 C       -7.8794     1.5182   -17.0051 C.3   198 CCL4   0.3246 
 988 CL      -7.8651     0.6222   -15.4710 Cl    198 CCL4  -0.0812 
 989 CL      -9.5399     1.6007   -17.6316 Cl    198 CCL4  -0.0812 
 990 CL      -7.2742     3.1620   -16.7278 Cl    198 CCL4  -0.0812 
 991 CL     -13.3214     5.0278    -8.5938 Cl    199 CCL4  -0.0812 
 992 C      -12.8833     3.3159    -8.4750 C.3   199 CCL4   0.3246 
 993 CL     -13.0135     2.7822    -6.7870 Cl    199 CCL4  -0.0812 
 994 CL     -11.2162     3.0955    -9.0339 Cl    199 CCL4  -0.0812 
 995 CL     -13.9811     2.3640    -9.4899 Cl    199 CCL4  -0.0812 
 996 CL     -12.2705    -3.1704   -15.8301 Cl    200 CCL4  -0.0812 
 997 C      -11.7829    -1.5956   -16.4873 C.3   200 CCL4   0.3246 
 998 CL     -13.1762    -0.8172   -17.2670 Cl    200 CCL4  -0.0812 
 999 CL     -10.4939    -1.8343   -17.6852 Cl    200 CCL4  -0.0812 
1000 CL     -11.1921    -0.5648   -15.1682 Cl    200 CCL4  -0.0812 
1001 CL       6.2580    -6.6299    -9.7970 Cl    201 CCL4  -0.0812 
1002 C        5.1643    -5.7816    -8.6815 C.3   201 CCL4   0.3246 
1003 CL       5.9812    -5.5382    -7.1246 Cl    201 CCL4  -0.0812 
1004 CL       3.6963    -6.7515    -8.4305 Cl    201 CCL4  -0.0812 
1005 CL       4.7259    -4.2028    -9.3688 Cl    201 CCL4  -0.0812 
1006 CL       7.0419    -1.5857   -11.8698 Cl    202 CCL4  -0.0812 
1007 C        6.1552    -0.3662   -12.8029 C.3   202 CCL4   0.3246 
1008 CL       4.5401    -0.9791   -13.1913 Cl    202 CCL4  -0.0812 
1009 CL       7.0305    -0.0038   -14.3050 Cl    202 CCL4  -0.0812 
1010 CL       6.0004     1.1083   -11.8370 Cl    202 CCL4  -0.0812 
1011 CL      -5.4468    -0.3890    -3.7499 Cl    203 CCL4  -0.0812 
1012 C       -6.5638     0.0381    -2.4434 C.3   203 CCL4   0.3246 
1013 CL      -7.2390    -1.4433    -1.7420 Cl    203 CCL4  -0.0812 
1014 CL      -7.8819     1.0344    -3.0922 Cl    203 CCL4  -0.0812 
1015 CL      -5.6818     0.9395    -1.1932 Cl    203 CCL4  -0.0812 
1016 CL      -6.9663    -2.7019    -8.5756 Cl    204 CCL4  -0.0812 
1017 C       -5.9731    -3.5803    -9.7532 C.3   204 CCL4   0.3246 
1018 CL      -6.8482    -3.7188   -11.2890 Cl    204 CCL4  -0.0812 
1019 CL      -5.6212    -5.2012    -9.1245 Cl    204 CCL4  -0.0812 
1020 CL      -4.4588    -2.6985   -10.0246 Cl    204 CCL4  -0.0812 
1021 CL      -2.3428    -0.3572    -8.4569 Cl    205 CCL4  -0.0812 
1022 C       -3.3241    -0.1943    -6.9898 C.3   205 CCL4   0.3246 
1023 CL      -4.8128     0.7019    -7.3649 Cl    205 CCL4  -0.0812 
1024 CL      -2.3908     0.6775    -5.7541 Cl    205 CCL4  -0.0812 
1025 CL      -3.7441    -1.8085    -6.3871 Cl    205 CCL4  -0.0812 
1026 CL     -11.6104    -5.6597    -3.1453 Cl    206 CCL4  -0.0812 
1027 C      -12.9076    -5.7260    -4.3550 C.3   206 CCL4   0.3246 
1028 CL     -14.1529    -4.5302    -3.9446 Cl    206 CCL4  -0.0812 
1029 CL     -13.6312    -7.3489    -4.3882 Cl    206 CCL4  -0.0812 
1030 CL     -12.2294    -5.3572    -5.9493 Cl    206 CCL4  -0.0812 
1031 CL     -12.2878    -0.4925    -8.5727 Cl    207 CCL4  -0.0812 
1032 C      -12.2474    -2.0295    -7.6945 C.3   207 CCL4   0.3246 
1033 CL     -13.2908    -3.2059    -8.5196 Cl    207 CCL4  -0.0812 
1034 CL     -12.8220    -1.7724    -6.0332 Cl    207 CCL4  -0.0812 
1035 CL     -10.5821    -2.6372    -7.6608 Cl    207 CCL4  -0.0812 
1036 CL       4.1210     1.5195    -3.2419 Cl    208 CCL4  -0.0812 
1037 C        5.4549     0.5399    -2.6026 C.3   208 CCL4   0.3246 
1038 CL       6.2753    -0.2900    -3.9378 Cl    208 CCL4  -0.0812 
1039 CL       4.8128    -0.6686    -1.4674 Cl    208 CCL4  -0.0812 
1040 CL       6.6090     1.6006    -1.7668 Cl    208 CCL4  -0.0812 
1041 CL      -5.6223     5.8458    -4.5399 Cl    209 CCL4  -0.0812 
1042 C       -5.5025     4.2541    -5.3194 C.3   209 CCL4   0.3246 
1043 CL      -4.5899     4.3992    -6.8366 Cl    209 CCL4  -0.0812 
1044 CL      -7.1335     3.6400    -5.6653 Cl    209 CCL4  -0.0812 
1045 CL      -4.6601     3.1296    -4.2337 Cl    209 CCL4  -0.0812 
1046 CL     -15.7058     1.2856    -5.0327 Cl    210 CCL4  -0.0812 
1047 C      -15.0741     0.7779    -3.4562 C.3   210 CCL4   0.3246 
1048 CL     -15.2326    -0.9809    -3.2871 Cl    210 CCL4  -0.0812 
1049 CL     -16.0098     1.5740    -2.1807 Cl    210 CCL4  -0.0812 
1050 CL     -13.3630     1.2368    -3.3147 Cl    210 CCL4  -0.0812 
1051 CL     -10.8418    -1.9160    -2.9768 Cl    211 CCL4  -0.0812 
1052 C      -11.1490    -2.0849    -1.2361 C.3   211 CCL4   0.3246 
1053 CL     -10.0702    -3.3226    -0.5602 Cl    211 CCL4  -0.0812 
1054 CL     -12.8410    -2.5604    -0.9773 Cl    211 CCL4  -0.0812 
1055 CL     -10.8423    -0.5354    -0.4265 Cl    211 CCL4  -0.0812 
1056 CL      -7.8182    -4.7513    -3.3158 Cl    212 CCL4  -0.0812 
1057 C       -7.5864    -4.2610    -5.0030 C.3   212 CCL4   0.3246 
1058 CL      -5.8955    -4.5161    -5.4737 Cl    212 CCL4  -0.0812 
1059 CL      -7.9999    -2.5430    -5.1775 Cl    212 CCL4  -0.0812 
1060 CL      -8.6344    -5.2404    -6.0434 Cl    212 CCL4  -0.0812 
1061 CL       1.1555    -0.3312    -8.3579 Cl    213 CCL4  -0.0812 
1062 C        2.6647     0.4522    -7.8606 C.3   213 CCL4   0.3246 
1063 CL       2.4187     2.2106    -7.8179 Cl    213 CCL4  -0.0812 
1064 CL       3.9519     0.0397    -9.0132 Cl    213 CCL4  -0.0812 
1065 CL       3.1214    -0.1163    -6.2448 Cl    213 CCL4  -0.0812 
1066 CL     -16.8093    -2.9032    -5.8438 Cl    214 CCL4  -0.0812 
1067 C      -17.1185    -2.0568    -7.3727 C.3   214 CCL4   0.3246 
1068 CL     -15.8565    -0.8437    -7.6413 Cl    214 CCL4  -0.0812 
1069 CL     -18.7001    -1.2591    -7.2984 Cl    214 CCL4  -0.0812 
1070 CL     -17.1054    -3.2163    -8.7123 Cl    214 CCL4  -0.0812 
1071 CL     -15.5741    -6.1119    -7.3204 Cl    215 CCL4  -0.0812 
1072 C      -15.0448    -6.9010    -8.8211 C.3   215 CCL4   0.3246 
1073 CL     -16.0501    -8.3349    -9.1151 Cl    215 CCL4  -0.0812 
1074 CL     -13.3442    -7.3873    -8.6651 Cl    215 CCL4  -0.0812 
1075 CL     -15.2106    -5.7741   -10.1840 Cl    215 CCL4  -0.0812 
1076 CL      -2.1799    -1.9974    -2.8981 Cl    216 CCL4  -0.0812 
1077 C       -2.9345    -2.9917    -1.6339 C.3   216 CCL4   0.3246 
1078 CL      -3.3334    -1.9694    -0.2364 Cl    216 CCL4  -0.0812 
1079 CL      -1.8055    -4.2696    -1.1365 Cl    216 CCL4  -0.0812 
1080 CL      -4.4216    -3.7265    -2.2649 Cl    216 CCL4  -0.0812 
1081 CL       0.9886    -4.5992   -17.0858 Cl    217 CCL4  -0.0812 
1082 C        1.0378    -3.2612   -15.9199 C.3   217 CCL4   0.3246 
1083 CL       0.9393    -1.7177   -16.7890 Cl    217 CCL4  -0.0812 
1084 CL       2.5537    -3.3326   -15.0031 Cl    217 CCL4  -0.0812 
1085 CL      -0.3288    -3.3927   -14.7986 Cl    217 CCL4  -0.0812 
1086 CL      -0.6469   -10.1512   -14.2810 Cl    218 CCL4  -0.0812 
1087 C       -1.9985   -10.9549   -13.4601 C.3   218 CCL4   0.3246 
1088 CL      -2.6292    -9.8878   -12.1937 Cl    218 CCL4  -0.0812 
1089 CL      -1.4293   -12.4684   -12.7314 Cl    218 CCL4  -0.0812 
1090 CL      -3.2862   -11.3085   -14.6292 Cl    218 CCL4  -0.0812 
1091 CL       4.1557    -9.8123    -1.6981 Cl    219 CCL4  -0.0812 
1092 C        3.9128   -10.3582    -0.0275 C.3   219 CCL4   0.3246 
1093 CL       2.5874    -9.4435     0.7173 Cl    219 CCL4  -0.0812 
1094 CL       5.4068   -10.0892     0.8879 Cl    219 CCL4  -0.0812 
1095 CL       3.5084   -12.0866    -0.0151 Cl    219 CCL4  -0.0812 
1096 CL       2.8133    -8.1520    22.5016 Cl    220 CCL4  -0.0812 
1097 C        4.2069    -7.2915    21.8210 C.3   220 CCL4   0.3246 
1098 CL       5.6597    -8.3009    21.9844 Cl    220 CCL4  -0.0812 
1099 CL       4.4423    -5.7665    22.6988 Cl    220 CCL4  -0.0812 
1100 CL       3.9092    -6.9479    20.1032 Cl    220 CCL4  -0.0812 
1101 CL       1.8412   -13.5000   -13.6858 Cl    221 CCL4  -0.0812 
1102 C        3.2731   -12.4534   -13.6444 C.3   221 CCL4   0.3246 
1103 CL       3.7545   -12.1773   -11.9577 Cl    221 CCL4  -0.0812 
1104 CL       2.8929   -10.9004   -14.4157 Cl    221 CCL4  -0.0812 
1105 CL       4.6009   -13.2374   -14.5237 Cl    221 CCL4  -0.0812 
1106 CL       4.1404    -5.6059   -12.6523 Cl    222 CCL4  -0.0812 
1107 C        3.6791    -7.2345   -13.1861 C.3   222 CCL4   0.3246 
1108 CL       2.1517    -7.1569   -14.0912 Cl    222 CCL4  -0.0812 
1109 CL       3.4784    -8.2876   -11.7698 Cl    222 CCL4  -0.0812 
1110 CL       4.9544    -7.8892   -14.2322 Cl    222 CCL4  -0.0812 
1111 CL       0.7434   -11.0404   -17.5194 Cl    223 CCL4  -0.0812 
1112 C        0.4889   -12.7934   -17.5928 C.3   223 CCL4   0.3246 
1113 CL      -0.1387   -13.2365   -19.1945 Cl    223 CCL4  -0.0812 
1114 CL      -0.6819   -13.2663   -16.3456 Cl    223 CCL4  -0.0812 
1115 CL       2.0332   -13.6247   -17.3128 Cl    223 CCL4  -0.0812 
1116 CL      -0.3021     1.2066   -11.3961 Cl    224 CCL4  -0.0812 
1117 C        0.9871     1.6280   -12.5421 C.3   224 CCL4   0.3246 
1118 CL       2.4979     1.8970   -11.6521 Cl    224 CCL4  -0.0812 
1119 CL       0.5528     3.1108   -13.4155 Cl    224 CCL4  -0.0812 
1120 CL       1.2030     0.3036   -13.7054 Cl    224 CCL4  -0.0812 
1121 CL      -2.9615     1.1438   -19.0317 Cl    225 CCL4  -0.0812 
1122 C       -1.3068     1.5915   -18.5614 C.3   225 CCL4   0.3246 
1123 CL      -1.0906     1.3159   -16.8191 Cl    225 CCL4  -0.0812 
1124 CL      -1.0296     3.3057   -18.9298 Cl    225 CCL4  -0.0812 
1125 CL      -0.1414     0.6074   -19.4712 Cl    225 CCL4  -0.0812 
1126 CL       1.3731    -9.7184    -7.9994 Cl    226 CCL4  -0.0812 
1127 C        0.2526    -9.5725    -9.3663 C.3   226 CCL4   0.3246 
1128 CL      -1.3852   -10.0221    -8.8410 Cl    226 CCL4  -0.0812 
1129 CL       0.7801   -10.6448   -10.6786 Cl    226 CCL4  -0.0812 
1130 CL       0.2537    -7.8984    -9.9501 Cl    226 CCL4  -0.0812 
1131 CL      -2.6501    -6.1568   -10.8867 Cl    227 CCL4  -0.0812 
1132 C       -3.0117    -6.0221   -12.6162 C.3   227 CCL4   0.3246 
1133 CL      -4.4852    -6.9373   -12.9800 Cl    227 CCL4  -0.0812 
1134 CL      -1.6556    -6.6758   -13.5557 Cl    227 CCL4  -0.0812 
1135 CL      -3.2608    -4.3183   -13.0388 Cl    227 CCL4  -0.0812 
1136 CL       0.3740    26.6202    -8.4064 Cl    228 CCL4  -0.0812 
1137 C        1.6184    25.4075    -8.7748 C.3   228 CCL4   0.3246 
1138 CL       1.5482    24.9932   -10.4981 Cl    228 CCL4  -0.0812 
1139 CL       1.3243    23.9476    -7.8078 Cl    228 CCL4  -0.0812 
1140 CL       3.2247    26.0622    -8.3920 Cl    228 CCL4  -0.0812 
1141 CL       1.8714    -4.2907    -0.0738 Cl    229 CCL4  -0.0812 
1142 C        3.1366    -5.3444    -0.7397 C.3   229 CCL4   0.3246 
1143 CL       4.1307    -4.4193    -1.8838 Cl    229 CCL4  -0.0812 
1144 CL       2.3840    -6.7085    -1.5798 Cl    229 CCL4  -0.0812 
1145 CL       4.1561    -5.9712     0.5710 Cl    229 CCL4  -0.0812 
1146 CL      -1.8623     6.0253    -8.9837 Cl    230 CCL4  -0.0812 
1147 C       -0.6962     4.7293    -8.6574 C.3   230 CCL4   0.3246 
1148 CL       0.1411     5.0608    -7.1252 Cl    230 CCL4  -0.0812 
1149 CL       0.4809     4.6537    -9.9843 Cl    230 CCL4  -0.0812 
1150 CL      -1.5514     3.1783    -8.5377 Cl    230 CCL4  -0.0812 
1151 CL       0.8574   -10.2072    -2.5694 Cl    231 CCL4  -0.0812 
1152 C        0.2565    -9.1168    -3.8314 C.3   231 CCL4   0.3246 
1153 CL      -0.5823   -10.0631    -5.0763 Cl    231 CCL4  -0.0812 
1154 CL       1.6217    -8.2523    -4.5650 Cl    231 CCL4  -0.0812 
1155 CL      -0.8705    -7.9508    -3.1105 Cl    231 CCL4  -0.0812 
1156 CL       4.3173    27.0593    -3.5379 Cl    232 CCL4  -0.0812 
1157 C        2.7664    26.3540    -4.0385 C.3   232 CCL4   0.3246 
1158 CL       1.6927    26.2118    -2.6322 Cl    232 CCL4  -0.0812 
1159 CL       3.0495    24.7438    -4.7293 Cl    232 CCL4  -0.0812 
1160 CL       2.0039    27.3953    -5.2565 Cl    232 CCL4  -0.0812 
1161 CL       2.7972    -3.6884    -5.5891 Cl    233 CCL4  -0.0812 
1162 C        1.3724    -3.1982    -4.6441 C.3   233 CCL4   0.3246 
1163 CL       0.1264    -2.5470    -5.7302 Cl    233 CCL4  -0.0812 
1164 CL       1.8334    -1.9577    -3.4573 Cl    233 CCL4  -0.0812 
1165 CL       0.7236    -4.6083    -3.7891 Cl    233 CCL4  -0.0812 
1166 CL      -1.7405    -2.5847    20.8567 Cl    234 CCL4  -0.0812 
1167 C       -3.0189    -2.6964    19.6301 C.3   234 CCL4   0.3246 
1168 CL      -4.5885    -2.3140    20.3701 Cl    234 CCL4  -0.0812 
1169 CL      -3.0568    -4.3463    18.9774 Cl    234 CCL4  -0.0812 
1170 CL      -2.6848    -1.5454    18.3172 Cl    234 CCL4  -0.0812 
1171 CL       2.0213    -2.3283   -11.2085 Cl    235 CCL4  -0.0812 
1172 C        0.7640    -3.4587   -10.6752 C.3   235 CCL4   0.3246 
1173 CL       1.0777    -3.9507    -8.9982 Cl    235 CCL4  -0.0812 
1174 CL       0.7855    -4.8892   -11.7179 Cl    235 CCL4  -0.0812 
1175 CL      -0.8225    -2.6712   -10.7880 Cl    235 CCL4  -0.0812 
1176 CL      -4.3229     0.7517   -15.4928 Cl    236 CCL4  -0.0812 
1177 C       -3.8740    -0.8007   -14.7637 C.3   236 CCL4   0.3246 
1178 CL      -5.2205    -1.3951   -13.7761 Cl    236 CCL4  -0.0812 
1179 CL      -2.4400    -0.5840   -13.7398 Cl    236 CCL4  -0.0812 
1180 CL      -3.5194    -1.9728   -16.0478 Cl    236 CCL4  -0.0812 
1181 CL      -2.9992     3.1473   -13.0821 Cl    237 CCL4  -0.0812 
1182 C       -4.3454     2.9651   -11.9431 C.3   237 CCL4   0.3246 
1183 CL      -4.4195     4.3803   -10.8728 Cl    237 CCL4  -0.0812 
1184 CL      -4.0784     1.5065   -10.9705 Cl    237 CCL4  -0.0812 
1185 CL      -5.8711     2.8220   -12.8448 Cl    237 CCL4  -0.0812 
1186 CL     -15.8471    -7.2836     7.5897 Cl    238 CCL4  -0.0812 
1187 C      -16.6026    -5.9522     8.4896 C.3   238 CCL4   0.3246 
1188 CL     -17.5832    -4.9656     7.3891 Cl    238 CCL4  -0.0812 
1189 CL     -15.3355    -4.9478     9.2228 Cl    238 CCL4  -0.0812 
1190 CL     -17.6508    -6.6095     9.7601 Cl    238 CCL4  -0.0812 
1191 CL      -4.8389    -8.4925     4.9383 Cl    239 CCL4  -0.0812 
1192 C       -4.1499    -8.7620     6.5515 C.3   239 CCL4   0.3246 
1193 CL      -4.6263   -10.3704     7.1358 Cl    239 CCL4  -0.0812 
1194 CL      -4.7705    -7.5260     7.6584 Cl    239 CCL4  -0.0812 
1195 CL      -2.3764    -8.6480     6.4804 Cl    239 CCL4  -0.0812 
1196 CL      -7.3508    22.9878    11.0981 Cl    240 CCL4  -0.0812 
1197 C       -7.8517    23.3024     9.4235 C.3   240 CCL4   0.3246 
1198 CL      -8.2398    21.7673     8.6157 Cl    240 CCL4  -0.0812 
1199 CL      -6.5344    24.1178     8.5546 Cl    240 CCL4  -0.0812 
1200 CL      -9.2877    24.3436     9.4307 Cl    240 CCL4  -0.0812 
1201 CL     -12.8702    -7.8217    10.0386 Cl    241 CCL4  -0.0812 
1202 C      -12.4637    -9.4820     9.5600 C.3   241 CCL4   0.3246 
1203 CL     -12.6883   -10.5762    10.9410 Cl    241 CCL4  -0.0812 
1204 CL     -10.7748    -9.5540     9.0261 Cl    241 CCL4  -0.0812 
1205 CL     -13.5189    -9.9788     8.2252 Cl    241 CCL4  -0.0812 
1206 CL     -12.4336     2.3522    10.7742 Cl    242 CCL4  -0.0812 
1207 C      -11.4843     3.7353    10.1875 C.3   242 CCL4   0.3246 
1208 CL     -12.2823     5.2470    10.6592 Cl    242 CCL4  -0.0812 
1209 CL     -11.3412     3.6703     8.4179 Cl    242 CCL4  -0.0812 
1210 CL      -9.8681     3.6804    10.9068 Cl    242 CCL4  -0.0812 
1211 CL      -7.4552   -10.2947    10.1277 Cl    243 CCL4  -0.0812 
1212 C       -7.8745   -12.0170    10.0659 C.3   243 CCL4   0.3246 
1213 CL      -6.5647   -12.9728    10.7807 Cl    243 CCL4  -0.0812 
1214 CL      -8.0986   -12.5081     8.3758 Cl    243 CCL4  -0.0812 
1215 CL      -9.3703   -12.2969    10.9818 Cl    243 CCL4  -0.0812 
1216 CL     -12.5088    22.8285     9.2922 Cl    244 CCL4  -0.0812 
1217 C      -13.7425    23.9357     9.9247 C.3   244 CCL4   0.3246 
1218 CL     -12.9645    25.2326    10.8556 Cl    244 CCL4  -0.0812 
1219 CL     -14.8563    23.0377    10.9736 Cl    244 CCL4  -0.0812 
1220 CL     -14.6447    24.6413     8.5719 Cl    244 CCL4  -0.0812 
1221 CL       3.0645    -0.3797     7.2197 Cl    245 CCL4  -0.0812 
1222 C        3.1939     1.0467     6.1726 C.3   245 CCL4   0.3246 
1223 CL       3.8145     2.4188     7.1136 Cl    245 CCL4  -0.0812 
1224 CL       1.5897     1.4495     5.5223 Cl    245 CCL4  -0.0812 
1225 CL       4.3077     0.6949     4.8342 Cl    245 CCL4  -0.0812 
1226 CL      -3.1270    -9.7829    -0.0643 Cl    246 CCL4  -0.0812 
1227 C       -2.3202   -11.3593    -0.1675 C.3   246 CCL4   0.3246 
1228 CL      -2.1934   -11.8430    -1.8719 Cl    246 CCL4  -0.0812 
1229 CL      -3.2691   -12.5672     0.7232 Cl    246 CCL4  -0.0812 
1230 CL      -0.6970   -11.2397     0.5456 Cl    246 CCL4  -0.0812 
1231 CL      -6.2595   -11.7088     3.9513 Cl    247 CCL4  -0.0812 
1232 C       -6.0982   -13.4309     4.3510 C.3   247 CCL4   0.3246 
1233 CL      -7.5929   -14.0069     5.1132 Cl    247 CCL4  -0.0812 
1234 CL      -4.7435   -13.6571     5.4763 Cl    247 CCL4  -0.0812 
1235 CL      -5.7995   -14.3514     2.8626 Cl    247 CCL4  -0.0812 
1236 CL     -10.5789   -14.0125    -0.0353 Cl    248 CCL4  -0.0812 
1237 C      -10.3425   -13.9561     1.7240 C.3   248 CCL4   0.3246 
1238 CL     -11.9235   -14.0035     2.5337 Cl    248 CCL4  -0.0812 
1239 CL      -9.4978   -12.4537     2.1574 Cl    248 CCL4  -0.0812 
1240 CL      -9.3732   -15.3547     2.2344 Cl    248 CCL4  -0.0812 
1241 CL      -8.0180    -6.7775     5.7865 Cl    249 CCL4  -0.0812 
1242 C       -8.7888    -8.3428     5.4656 C.3   249 CCL4   0.3246 
1243 CL     -10.5303    -8.2169     5.7713 Cl    249 CCL4  -0.0812 
1244 CL      -8.0843    -9.5662     6.5355 Cl    249 CCL4  -0.0812 
1245 CL      -8.5238    -8.8140     3.7758 Cl    249 CCL4  -0.0812 
1246 CL     -15.3447   -11.6112     3.0829 Cl    250 CCL4  -0.0812 
1247 C      -15.1778   -10.3328     4.3048 C.3   250 CCL4   0.3246 
1248 CL     -15.9689   -10.8529     5.8045 Cl    250 CCL4  -0.0812 
1249 CL     -15.9443    -8.8422     3.7279 Cl    250 CCL4  -0.0812 
1250 CL     -13.4568   -10.0203     4.6030 Cl    250 CCL4  -0.0812 
1251 CL     -10.9112   -14.9531     6.1890 Cl    251 CCL4  -0.0812 
1252 C      -11.6460   -13.3598     6.4583 C.3   251 CCL4   0.3246 
1253 CL     -10.7015   -12.1131     5.6163 Cl    251 CCL4  -0.0812 
1254 CL     -11.6628   -13.0090     8.1943 Cl    251 CCL4  -0.0812 
1255 CL     -13.3121   -13.3653     5.8458 Cl    251 CCL4  -0.0812 
1256 CL       7.2459    -8.6416    11.1986 Cl    252 CCL4  -0.0812 
1257 C        7.3738   -10.3639    10.7918 C.3   252 CCL4   0.3246 
1258 CL       6.0707   -11.2637    11.5982 Cl    252 CCL4  -0.0812 
1259 CL       8.9504   -10.9736    11.3332 Cl    252 CCL4  -0.0812 
1260 CL       7.2324   -10.5737     9.0359 Cl    252 CCL4  -0.0812 
1261 CL       7.0121    23.1039     9.0237 Cl    253 CCL4  -0.0812 
1262 C        6.2575    24.2556     7.9071 C.3   253 CCL4   0.3246 
1263 CL       7.1054    24.2063     6.3470 Cl    253 CCL4  -0.0812 
1264 CL       6.3519    25.8908     8.5888 Cl    253 CCL4  -0.0812 
1265 CL       4.5558    23.8168     7.6753 Cl    253 CCL4  -0.0812 
1266 CL     -14.9159     3.1817     8.3106 Cl    254 CCL4  -0.0812 
1267 C      -16.1215     3.1830     9.6135 C.3   254 CCL4   0.3246 
1268 CL     -17.7234     3.5149     8.9290 Cl    254 CCL4  -0.0812 
1269 CL     -15.7165     4.4406    10.7957 Cl    254 CCL4  -0.0812 
1270 CL     -16.1319     1.6025    10.4228 Cl    254 CCL4  -0.0812 
1271 CL       3.8428   -14.2480     4.8113 Cl    255 CCL4  -0.0812 
1272 C        4.8680   -12.9791     4.1103 C.3   255 CCL4   0.3246 
1273 CL       6.1499   -12.5409     5.2567 Cl    255 CCL4  -0.0812 
1274 CL       3.8736   -11.5521     3.7632 Cl    255 CCL4  -0.0812 
1275 CL       5.6030   -13.5731     2.6069 Cl    255 CCL4  -0.0812 
1276 CL     -10.3332    22.9419    15.2580 Cl    256 CCL4  -0.0812 
1277 C      -11.1598    23.7557    13.9130 C.3   256 CCL4   0.3246 
1278 CL     -12.9118    23.7655    14.2106 Cl    256 CCL4  -0.0812 
1279 CL     -10.8190    22.8850    12.4068 Cl    256 CCL4  -0.0812 
1280 CL     -10.5694    25.4258    13.7742 Cl    256 CCL4  -0.0812 
1281 CL       2.9067    25.2963    13.4723 Cl    257 CCL4  -0.0812 
1282 C        4.1880    24.0868    13.2476 C.3   257 CCL4   0.3246 
1283 CL       5.2732    24.1044    14.6531 Cl    257 CCL4  -0.0812 
1284 CL       5.1145    24.4711    11.7815 Cl    257 CCL4  -0.0812 
1285 CL       3.4572    22.4750    13.0900 Cl    257 CCL4  -0.0812 
1286 CL      -6.2927   -11.7686    16.4405 Cl    258 CCL4  -0.0812 
1287 C       -5.2607   -10.8011    15.3666 C.3   258 CCL4   0.3246 
1288 CL      -5.9621   -10.7901    13.7349 Cl    258 CCL4  -0.0812 
1289 CL      -3.6333   -11.5113    15.3102 Cl    258 CCL4  -0.0812 
1290 CL      -5.1569    -9.1380    15.9848 Cl    258 CCL4  -0.0812 
1291 CL      -7.1143    -7.3396    13.5086 Cl    259 CCL4  -0.0812 
1292 C       -8.8495    -7.5993    13.7732 C.3   259 CCL4   0.3246 
1293 CL      -9.6098    -6.0706    14.2679 Cl    259 CCL4  -0.0812 
1294 CL      -9.0732    -8.8161    15.0483 Cl    259 CCL4  -0.0812 
1295 CL      -9.5969    -8.1741    12.2680 Cl    259 CCL4  -0.0812 
1296 CL      -3.9102    24.0844    11.5936 Cl    260 CCL4  -0.0812 
1297 C       -4.2548    24.1359    13.3357 C.3   260 CCL4   0.3246 
1298 CL      -5.6655    25.1719    13.6426 Cl    260 CCL4  -0.0812 
1299 CL      -2.8494    24.7945    14.1995 Cl    260 CCL4  -0.0812 
1300 CL      -4.5934    22.4906    13.9137 Cl    260 CCL4  -0.0812 
1301 CL     -13.8996   -12.5312    13.8605 Cl    261 CCL4  -0.0812 
1302 C      -15.5751   -13.1077    13.9820 C.3   261 CCL4   0.3246 
1303 CL     -16.6631   -11.7189    14.1671 Cl    261 CCL4  -0.0812 
1304 CL     -15.7391   -14.1782    15.3895 Cl    261 CCL4  -0.0812 
1305 CL     -16.0012   -14.0001    12.5100 Cl    261 CCL4  -0.0812 
1306 CL       5.4762     1.8912    15.6558 Cl    262 CCL4  -0.0812 
1307 C        5.2123     3.3402    14.6624 C.3   262 CCL4   0.3246 
1308 CL       4.1256     4.4570    15.5145 Cl    262 CCL4  -0.0812 
1309 CL       4.4776     2.8686    13.1190 Cl    262 CCL4  -0.0812 
1310 CL       6.7667     4.1448    14.3576 Cl    262 CCL4  -0.0812 
1311 CL      -7.7999    -4.2125     8.3949 Cl    263 CCL4  -0.0812 
1312 C       -8.3551    -5.3060     9.6751 C.3   263 CCL4   0.3246 
1313 CL      -9.8186    -6.1478     9.1370 Cl    263 CCL4  -0.0812 
1314 CL      -8.7050    -4.3748    11.1451 Cl    263 CCL4  -0.0812 
1315 CL      -7.0936    -6.4990    10.0197 Cl    263 CCL4  -0.0812 
1316 CL      -8.0610     0.7696    15.6561 Cl    264 CCL4  -0.0812 
1317 C       -8.2341    -0.0890    14.1109 C.3   264 CCL4   0.3246 
1318 CL      -8.9503    -1.6889    14.4016 Cl    264 CCL4  -0.0812 
1319 CL      -6.6364    -0.2788    13.3578 Cl    264 CCL4  -0.0812 
1320 CL      -9.2921     0.8437    13.0319 Cl    264 CCL4  -0.0812 
1321 CL     -11.2902    -1.8121    11.6201 Cl    265 CCL4  -0.0812 
1322 C      -12.7576    -2.7010    12.0619 C.3   265 CCL4   0.3246 
1323 CL     -12.5190    -4.4347    11.7514 Cl    265 CCL4  -0.0812 
1324 CL     -14.1159    -2.0953    11.0933 Cl    265 CCL4  -0.0812 
1325 CL     -13.0984    -2.4485    13.7853 Cl    265 CCL4  -0.0812 
1326 CL       2.7322    -4.5835     3.4544 Cl    266 CCL4  -0.0812 
1327 C        3.3479    -2.9272     3.5947 C.3   266 CCL4   0.3246 
1328 CL       4.2270    -2.4804     2.1171 Cl    266 CCL4  -0.0812 
1329 CL       4.4463    -2.8286     4.9858 Cl    266 CCL4  -0.0812 
1330 CL       1.9793    -1.8190     3.8203 Cl    266 CCL4  -0.0812 
1331 CL      -8.5055    -0.8663     6.9750 Cl    267 CCL4  -0.0812 
1332 C       -8.9437    -0.0210     8.4742 C.3   267 CCL4   0.3246 
1333 CL      -8.3659    -0.9423     9.8772 Cl    267 CCL4  -0.0812 
1334 CL     -10.7095     0.1422     8.5501 Cl    267 CCL4  -0.0812 
1335 CL      -8.1973     1.5888     8.4947 Cl    267 CCL4  -0.0812 
1336 CL      -6.8762    -2.5450     1.5730 Cl    268 CCL4  -0.0812 
1337 C       -7.6045    -1.2659     2.5633 C.3   268 CCL4   0.3246 
1338 CL      -9.1559    -1.8376     3.2126 Cl    268 CCL4  -0.0812 
1339 CL      -7.8727     0.1791     1.5671 Cl    268 CCL4  -0.0812 
1340 CL      -6.5066    -0.8581     3.8970 Cl    268 CCL4  -0.0812 
1341 CL     -12.6488    -6.6694     3.2211 Cl    269 CCL4  -0.0812 
1342 C      -11.8454    -5.5437     2.1097 C.3   269 CCL4   0.3246 
1343 CL     -12.4121    -3.8906     2.4221 Cl    269 CCL4  -0.0812 
1344 CL     -12.2378    -5.9917     0.4375 Cl    269 CCL4  -0.0812 
1345 CL     -10.0886    -5.6223     2.3601 Cl    269 CCL4  -0.0812 
1346 CL     -14.5355     0.0249     5.0286 Cl    270 CCL4  -0.0812 
1347 C      -15.7308    -0.3456     6.2854 C.3   270 CCL4   0.3246 
1348 CL     -16.5728    -1.8586     5.8964 Cl    270 CCL4  -0.0812 
1349 CL     -16.9169     0.9688     6.3784 Cl    270 CCL4  -0.0812 
1350 CL     -14.8939    -0.5160     7.8424 Cl    270 CCL4  -0.0812 
1351 CL     -12.6680    -5.6589     6.9003 Cl    271 CCL4  -0.0812 
1352 C      -11.9715    -4.0381     6.7081 C.3   271 CCL4   0.3246 
1353 CL     -13.0893    -3.0256     5.7824 Cl    271 CCL4  -0.0812 
1354 CL     -10.4280    -4.1510     5.8394 Cl    271 CCL4  -0.0812 
1355 CL     -11.7080    -3.3064     8.3033 Cl    271 CCL4  -0.0812 
1356 CL     -15.6132    -5.1896     4.4701 Cl    272 CCL4  -0.0812 
1357 C      -16.6309    -4.6542     3.1193 C.3   272 CCL4   0.3246 
1358 CL     -18.3148    -4.5093     3.6690 Cl    272 CCL4  -0.0812 
1359 CL     -16.5330    -5.8473     1.8084 Cl    272 CCL4  -0.0812 
1360 CL     -16.0566    -3.0789     2.5290 Cl    272 CCL4  -0.0812 
1361 CL       5.8787    -6.8453    13.9378 Cl    273 CCL4  -0.0812 
1362 C        4.8421    -5.6427    14.7318 C.3   273 CCL4   0.3246 
1363 CL       5.5533    -5.1910    16.2952 Cl    273 CCL4  -0.0812 
1364 CL       3.2260    -6.3297    14.9975 Cl    273 CCL4  -0.0812 
1365 CL       4.7097    -4.2052    13.6984 Cl    273 CCL4  -0.0812 
1366 CL       5.5064    -0.5356    12.5571 Cl    274 CCL4  -0.0812 
1367 C        5.4789    -0.7603    10.7988 C.3   274 CCL4   0.3246 
1368 CL       4.3552    -2.0734    10.3981 Cl    274 CCL4  -0.0812 
1369 CL       7.1105    -1.1700    10.2230 Cl    274 CCL4  -0.0812 
1370 CL       4.9361     0.7420    10.0256 Cl    274 CCL4  -0.0812 
1371 CL      -4.4423    -6.1004     0.5923 Cl    275 CCL4  -0.0812 
1372 C       -6.0902    -6.5725     1.0480 C.3   275 CCL4   0.3246 
1373 CL      -6.2771    -8.3319     0.8914 Cl    275 CCL4  -0.0812 
1374 CL      -7.2500    -5.7560    -0.0142 Cl    275 CCL4  -0.0812 
1375 CL      -6.3964    -6.0914     2.7248 Cl    275 CCL4  -0.0812 
1376 CL      -5.8207    -3.2003    16.7975 Cl    276 CCL4  -0.0812 
1377 C       -5.0029    -3.7144    15.3063 C.3   276 CCL4   0.3246 
1378 CL      -6.2112    -3.9402    14.0267 Cl    276 CCL4  -0.0812 
1379 CL      -4.1489    -5.2475    15.5886 Cl    276 CCL4  -0.0812 
1380 CL      -3.8376    -2.4675    14.8105 Cl    276 CCL4  -0.0812 
1381 CL      -5.9654     4.7358    16.9539 Cl    277 CCL4  -0.0812 
1382 C       -4.8776     3.3384    16.8145 C.3   277 CCL4   0.3246 
1383 CL      -3.2290     3.8283    17.2622 Cl    277 CCL4  -0.0812 
1384 CL      -4.8934     2.7506    15.1379 Cl    277 CCL4  -0.0812 
1385 CL      -5.4197     2.0418    17.9027 Cl    277 CCL4  -0.0812 
1386 CL      -0.0553    -0.5576    14.3716 Cl    278 CCL4  -0.0812 
1387 C        1.3408    -0.3177    15.4452 C.3   278 CCL4   0.3246 
1388 CL       1.7322     1.4126    15.5381 Cl    278 CCL4  -0.0812 
1389 CL       2.7416    -1.2006    14.8048 Cl    278 CCL4  -0.0812 
1390 CL       0.9485    -0.9254    17.0682 Cl    278 CCL4  -0.0812 
1391 CL     -16.3623    -2.4226    15.4040 Cl    279 CCL4  -0.0812 
1392 C      -17.3324    -2.3141    13.9211 C.3   279 CCL4   0.3246 
1393 CL     -17.0310    -0.7544    13.1259 Cl    279 CCL4  -0.0812 
1394 CL     -19.0546    -2.4506    14.3372 Cl    279 CCL4  -0.0812 
1395 CL     -16.8790    -3.6312    12.8218 Cl    279 CCL4  -0.0812 
1396 CL     -14.3406    -5.7680    15.0458 Cl    280 CCL4  -0.0812 
1397 C      -14.5374    -7.2158    14.0362 C.3   280 CCL4   0.3246 
1398 CL     -15.5646    -8.3935    14.8789 Cl    280 CCL4  -0.0812 
1399 CL     -12.9477    -7.9408    13.7176 Cl    280 CCL4  -0.0812 
1400 CL     -15.2997    -6.7590    12.5023 Cl    280 CCL4  -0.0812 
1401 CL       0.5483    -5.5199     6.3603 Cl    281 CCL4  -0.0812 
1402 C        0.6439    -4.1532     7.4914 C.3   281 CCL4   0.3246 
1403 CL       0.0221    -2.6860     6.7105 Cl    281 CCL4  -0.0812 
1404 CL       2.3341    -3.8928     7.9596 Cl    281 CCL4  -0.0812 
1405 CL      -0.3216    -4.5092     8.9376 Cl    281 CCL4  -0.0812 
1406 CL      -2.0755   -10.9071     9.4822 Cl    282 CCL4  -0.0812 
1407 C       -2.3828   -12.5052    10.1851 C.3   282 CCL4   0.3246 
1408 CL      -3.1913   -12.3049    11.7522 Cl    282 CCL4  -0.0812 
1409 CL      -0.8449   -13.3578    10.4255 Cl    282 CCL4  -0.0812 
1410 CL      -3.4156   -13.4437     9.0852 Cl    282 CCL4  -0.0812 
1411 CL       2.5087    -8.7762     5.9854 Cl    283 CCL4  -0.0812 
1412 C        4.0420    -8.0400     5.4773 C.3   283 CCL4   0.3246 
1413 CL       5.3956    -9.0295     6.0483 Cl    283 CCL4  -0.0812 
1414 CL       4.1737    -6.4139     6.1720 Cl    283 CCL4  -0.0812 
1415 CL       4.0992    -7.9423     3.7069 Cl    283 CCL4  -0.0812 
1416 CL       1.7039   -13.6084     7.7756 Cl    284 CCL4  -0.0812 
1417 C        2.4141   -12.2134     8.6123 C.3   284 CCL4   0.3246 
1418 CL       2.7991   -12.6435    10.2924 Cl    284 CCL4  -0.0812 
1419 CL       1.2650   -10.8646     8.5932 Cl    284 CCL4  -0.0812 
1420 CL       3.8955   -11.7248     7.7770 Cl    284 CCL4  -0.0812 
1421 CL       3.8255    -5.8599    10.5160 Cl    285 CCL4  -0.0812 
1422 C        3.1988    -7.5107    10.3569 C.3   285 CCL4   0.3246 
1423 CL       1.5643    -7.4614     9.6683 Cl    285 CCL4  -0.0812 
1424 CL       3.1593    -8.2797    11.9528 Cl    285 CCL4  -0.0812 
1425 CL       4.2542    -8.4485     9.2897 Cl    285 CCL4  -0.0812 
1426 CL       1.6543    25.1730     1.8221 Cl    286 CCL4  -0.0812 
1427 C        0.5545    24.1255     0.8986 C.3   286 CCL4   0.3246 
1428 CL      -0.3905    23.1190     2.0144 Cl    286 CCL4  -0.0812 
1429 CL       1.5000    23.0791    -0.1816 Cl    286 CCL4  -0.0812 
1430 CL      -0.5512    25.1267    -0.0638 Cl    286 CCL4  -0.0812 
1431 CL      -2.5459   -11.0981     3.8822 Cl    287 CCL4  -0.0812 
1432 C       -1.2125   -12.1185     4.4557 C.3   287 CCL4   0.3246 
1433 CL      -1.2625   -13.6763     3.6088 Cl    287 CCL4  -0.0812 
1434 CL      -1.3770   -12.3887     6.2023 Cl    287 CCL4  -0.0812 
1435 CL       0.3337   -11.3111     4.1275 Cl    287 CCL4  -0.0812 
1436 CL      -1.1605     0.9320    11.1302 Cl    288 CCL4  -0.0812 
1437 C        0.4845     0.7900    10.4789 C.3   288 CCL4   0.3246 
1438 CL       1.6563     1.2467    11.7307 Cl    288 CCL4  -0.0812 
1439 CL       0.6587     1.8667     9.0784 Cl    288 CCL4  -0.0812 
1440 CL       0.7844    -0.8867     9.9791 Cl    288 CCL4  -0.0812 
1441 CL       0.6284    -7.6348     3.1724 Cl    289 CCL4  -0.0812 
1442 C       -0.6973    -6.9407     2.2249 C.3   289 CCL4   0.3246 
1443 CL      -2.2321    -7.6076     2.8081 Cl    289 CCL4  -0.0812 
1444 CL      -0.4842    -7.3541     0.5123 Cl    289 CCL4  -0.0812 
1445 CL      -0.7021    -5.1752     2.4151 Cl    289 CCL4  -0.0812 
1446 CL      -5.2556     1.5061     6.4011 Cl    290 CCL4  -0.0812 
1447 C       -3.5934     1.9272     5.9413 C.3   290 CCL4   0.3246 
1448 CL      -2.4614     1.2711     7.1438 Cl    290 CCL4  -0.0812 
1449 CL      -3.4265     3.6936     5.8685 Cl    290 CCL4  -0.0812 
1450 CL      -3.2303     1.2431     4.3420 Cl    290 CCL4  -0.0812 
1451 CL       2.3995   -11.1196    13.9370 Cl    291 CCL4  -0.0812 
1452 C        0.6482   -10.8574    13.7923 C.3   291 CCL4   0.3246 
1453 CL      -0.2032   -12.3843    14.1061 Cl    291 CCL4  -0.0812 
1454 CL       0.2617   -10.2934    12.1536 Cl    291 CCL4  -0.0812 
1455 CL       0.1341    -9.6331    14.9727 Cl    291 CCL4  -0.0812 
1456 CL      -2.6453    -8.2216    13.1952 Cl    292 CCL4  -0.0812 
1457 C       -3.3270    -7.6242    11.6695 C.3   292 CCL4   0.3246 
1458 CL      -4.5166    -8.7925    11.0724 Cl    292 CCL4  -0.0812 
1459 CL      -2.0417    -7.4299    10.4601 Cl    292 CCL4  -0.0812 
1460 CL      -4.1133    -6.0596    11.9496 Cl    292 CCL4  -0.0812 
1461 CL      -0.8705    23.1634     9.4461 Cl    293 CCL4  -0.0812 
1462 C        0.4137    22.8808    10.6390 C.3   293 CCL4   0.3246 
1463 CL       1.8517    23.8162    10.1886 Cl    293 CCL4  -0.0812 
1464 CL       0.8244    21.1538    10.6814 Cl    293 CCL4  -0.0812 
1465 CL      -0.1479    23.3928    12.2431 Cl    293 CCL4  -0.0812 
1466 CL      -2.2181     5.5801    14.1276 Cl    294 CCL4  -0.0812 
1467 C       -0.8489     4.4702    13.9059 C.3   294 CCL4   0.3246 
1468 CL       0.4894     4.9771    14.9563 Cl    294 CCL4  -0.0812 
1469 CL      -0.3194     4.5003    12.2106 Cl    294 CCL4  -0.0812 
1470 CL      -1.3455     2.8214    14.3354 Cl    294 CCL4  -0.0812 
1471 CL      -2.8926    -5.0734     5.4227 Cl    295 CCL4  -0.0812 
1472 C       -3.8840    -3.7100     4.8674 C.3   295 CCL4   0.3246 
1473 CL      -3.2418    -2.1969     5.5339 Cl    295 CCL4  -0.0812 
1474 CL      -5.5590    -3.9404     5.4121 Cl    295 CCL4  -0.0812 
1475 CL      -3.8367    -3.6215     3.0968 Cl    295 CCL4  -0.0812 
1476 CL       1.4670    -3.5330    12.3349 Cl    296 CCL4  -0.0812 
1477 C        0.1063    -4.3822    13.0939 C.3   296 CCL4   0.3246 
1478 CL       0.1145    -4.0879    14.8462 Cl    296 CCL4  -0.0812 
1479 CL       0.2646    -6.1237    12.7954 Cl    296 CCL4  -0.0812 
1480 CL      -1.4158    -3.7890    12.3977 Cl    296 CCL4  -0.0812 
1481 CL      -5.3005    -1.6906     8.2464 Cl    297 CCL4  -0.0812 
1482 C       -4.2247    -2.5598     9.3548 C.3   297 CCL4   0.3246 
1483 CL      -4.9148    -2.5332    10.9891 Cl    297 CCL4  -0.0812 
1484 CL      -2.6370    -1.7718     9.3641 Cl    297 CCL4  -0.0812 
1485 CL      -4.0452    -4.2400     8.8151 Cl    297 CCL4  -0.0812 
1486 CL      -5.3091     3.8784     9.2454 Cl    298 CCL4  -0.0812 
1487 C       -5.1352     2.8734    10.7003 C.3   298 CCL4   0.3246 
1488 CL      -3.7239     3.4028    11.6289 Cl    298 CCL4  -0.0812 
1489 CL      -4.9239     1.1763    10.2316 Cl    298 CCL4  -0.0812 
1490 CL      -6.5807     3.0348    11.7112 Cl    298 CCL4  -0.0812 
1491 CL     -17.6462    20.3506   -13.8534 Cl    299 CCL4  -0.0812 
1492 C      -17.4097    21.7056   -12.7316 C.3   299 CCL4   0.3246 
1493 CL     -17.8622    23.2182   -13.5417 Cl    299 CCL4  -0.0812 
1494 CL     -15.7024    21.7938   -12.2512 Cl    299 CCL4  -0.0812 
1495 CL     -18.4258    21.4651   -11.2929 Cl    299 CCL4  -0.0812 
1496 CL      -5.0255    13.2583   -17.8840 Cl    300 CCL4  -0.0812 
1497 C       -5.0224    12.6642   -16.2108 C.3   300 CCL4   0.3246 
1498 CL      -6.2172    11.3637   -16.0395 Cl    300 CCL4  -0.0812 
1499 CL      -5.4251    13.9952   -15.1055 Cl    300 CCL4  -0.0812 
1500 CL      -3.4134    12.0350   -15.8180 Cl    300 CCL4  -0.0812 
1501 CL      -8.0554     5.9804   -14.5797 Cl    301 CCL4  -0.0812 
1502 C       -8.3749     7.7258   -14.5996 C.3   301 CCL4   0.3246 
1503 CL      -8.4999     8.2809   -16.2794 Cl    301 CCL4  -0.0812 
1504 CL      -7.0482     8.5816   -13.7875 Cl    301 CCL4  -0.0812 
1505 CL      -9.8996     8.0577   -13.7551 Cl    301 CCL4  -0.0812 
1506 CL     -13.2680    18.8328   -13.0312 Cl    302 CCL4  -0.0812 
1507 C      -13.0430    17.1209   -13.4515 C.3   302 CCL4   0.3246 
1508 CL     -13.7406    16.1027   -12.1765 Cl    302 CCL4  -0.0812 
1509 CL     -11.3084    16.7671   -13.6077 Cl    302 CCL4  -0.0812 
1510 CL     -13.8568    16.7780   -14.9927 Cl    302 CCL4  -0.0812 
1511 CL      -8.1286     7.7311     0.9352 Cl    303 CCL4  -0.0812 
1512 C       -7.5437     9.1787     0.0901 C.3   303 CCL4   0.3246 
1513 CL      -6.7512     8.7017    -1.4267 Cl    303 CCL4  -0.0812 
1514 CL      -6.3779    10.0292     1.1232 Cl    303 CCL4  -0.0812 
1515 CL      -8.9141    10.2493    -0.2663 Cl    303 CCL4  -0.0812 
1516 CL      -8.5046    14.2014   -12.6202 Cl    304 CCL4  -0.0812 
1517 C       -8.3010    12.4519   -12.3904 C.3   304 CCL4   0.3246 
1518 CL      -6.5743    12.0670   -12.2857 Cl    304 CCL4  -0.0812 
1519 CL      -9.0143    11.5938   -13.7691 Cl    304 CCL4  -0.0812 
1520 CL      -9.1053    11.9400   -10.8929 Cl    304 CCL4  -0.0812 
1521 CL     -10.3741     8.7346   -19.4138 Cl    305 CCL4  -0.0812 
1522 C      -12.0710     8.7849   -18.9034 C.3   305 CCL4   0.3246 
1523 CL     -13.0032     7.5871   -19.8247 Cl    305 CCL4  -0.0812 
1524 CL     -12.7252    10.4083   -19.2045 Cl    305 CCL4  -0.0812 
1525 CL     -12.1792     8.4082   -17.1722 Cl    305 CCL4  -0.0812 
1526 CL      -8.7272     8.2546   -10.0817 Cl    306 CCL4  -0.0812 
1527 C       -9.1171     6.5233   -10.0469 C.3   306 CCL4   0.3246 
1528 CL      -7.9363     5.6237   -11.0212 Cl    306 CCL4  -0.0812 
1529 CL     -10.7423     6.2783   -10.7123 Cl    306 CCL4  -0.0812 
1530 CL      -9.0654     5.9360    -8.3726 Cl    306 CCL4  -0.0812 
1531 CL     -13.4430     7.9130   -12.9649 Cl    307 CCL4  -0.0812 
1532 C      -13.6124     8.9650   -11.5451 C.3   307 CCL4   0.3246 
1533 CL     -12.0306     9.6324   -11.0928 Cl    307 CCL4  -0.0812 
1534 CL     -14.2674     8.0237   -10.1942 Cl    307 CCL4  -0.0812 
1535 CL     -14.7194    10.2960   -11.9236 Cl    307 CCL4  -0.0812 
1536 CL       6.1423     5.7538    24.0574 Cl    308 CCL4  -0.0812 
1537 C        6.0741     6.7748    22.6067 C.3   308 CCL4   0.3246 
1538 CL       4.3789     7.0603    22.1592 Cl    308 CCL4  -0.0812 
1539 CL       6.9034     5.9578    21.2654 Cl    308 CCL4  -0.0812 
1540 CL       6.8716     8.3256    22.9425 Cl    308 CCL4  -0.0812 
1541 CL     -10.9479    15.0762    -0.1920 Cl    309 CCL4  -0.0812 
1542 C      -10.9104    14.6996    -1.9266 C.3   309 CCL4   0.3246 
1543 CL      -9.6288    15.6469    -2.7094 Cl    309 CCL4  -0.0812 
1544 CL     -12.4741    15.1041    -2.6647 Cl    309 CCL4  -0.0812 
1545 CL     -10.5905    12.9677    -2.1416 Cl    309 CCL4  -0.0812 
1546 CL     -16.8978    17.3518     0.5862 Cl    310 CCL4  -0.0812 
1547 C      -15.8846    16.2719    -0.3946 C.3   310 CCL4   0.3246 
1548 CL     -14.2254    16.2845     0.2249 Cl    310 CCL4  -0.0812 
1549 CL     -15.8786    16.8319    -2.0746 Cl    310 CCL4  -0.0812 
1550 CL     -16.5257    14.6200    -0.3234 Cl    310 CCL4  -0.0812 
1551 CL      -4.9885    10.9940    18.9459 Cl    311 CCL4  -0.0812 
1552 C       -4.9323     9.6015    20.0471 C.3   311 CCL4   0.3246 
1553 CL      -6.4767     9.4657    20.9110 Cl    311 CCL4  -0.0812 
1554 CL      -3.6217     9.8290    21.2242 Cl    311 CCL4  -0.0812 
1555 CL      -4.6412     8.1194    19.1108 Cl    311 CCL4  -0.0812 
1556 CL      -8.1695    12.5782    20.4805 Cl    312 CCL4  -0.0812 
1557 C       -9.3212    12.9724    21.7719 C.3   312 CCL4   0.3246 
1558 CL     -10.8018    13.6389    21.0521 Cl    312 CCL4  -0.0812 
1559 CL      -8.6013    14.1690    22.8709 Cl    312 CCL4  -0.0812 
1560 CL      -9.7150    11.5015    22.6820 Cl    312 CCL4  -0.0812 
1561 CL     -12.4854    10.9783   -14.7395 Cl    313 CCL4  -0.0812 
1562 C      -12.7458    12.6748   -14.2905 C.3   313 CCL4   0.3246 
1563 CL     -11.8858    13.7225   -15.4335 Cl    313 CCL4  -0.0812 
1564 CL     -12.1297    12.9596   -12.6508 Cl    313 CCL4  -0.0812 
1565 CL     -14.4806    13.0435   -14.3436 Cl    313 CCL4  -0.0812 
1566 CL       9.4806    15.5653   -12.0243 Cl    314 CCL4  -0.0812 
1567 C        8.5685    14.0484   -12.1643 C.3   314 CCL4   0.3246 
1568 CL       7.1866    14.0857   -11.0482 Cl    314 CCL4  -0.0812 
1569 CL       9.6278    12.6813   -11.7609 Cl    314 CCL4  -0.0812 
1570 CL       7.9831    13.8633   -13.8298 Cl    314 CCL4  -0.0812 
1571 CL       8.8381     8.8323   -11.3865 Cl    315 CCL4  -0.0812 
1572 C        7.6923     9.3664   -12.6323 C.3   315 CCL4   0.3246 
1573 CL       8.5942    10.0155   -14.0175 Cl    315 CCL4  -0.0812 
1574 CL       6.6243    10.6195   -11.9649 Cl    315 CCL4  -0.0812 
1575 CL       6.7122     7.9883   -13.1631 Cl    315 CCL4  -0.0812 
1576 CL       6.7122    14.2879    -5.6249 Cl    316 CCL4  -0.0812 
1577 C        5.3927    13.1265    -5.8796 C.3   316 CCL4   0.3246 
1578 CL       5.2640    12.7380    -7.6054 Cl    316 CCL4  -0.0812 
1579 CL       3.8609    13.8292    -5.3239 Cl    316 CCL4  -0.0812 
1580 CL       5.7225    11.6485    -4.9566 Cl    316 CCL4  -0.0812 
1581 CL       5.6897    11.3784    24.5861 Cl    317 CCL4  -0.0812 
1582 C        6.1065    12.1976    23.0697 C.3   317 CCL4   0.3246 
1583 CL       7.8598    12.0864    22.8023 Cl    317 CCL4  -0.0812 
1584 CL       5.6244    13.9055    23.1667 Cl    317 CCL4  -0.0812 
1585 CL       5.2481    11.4162    21.7246 Cl    317 CCL4  -0.0812 
1586 CL     -12.5736     8.9132    -4.6429 Cl    318 CCL4  -0.0812 
1587 C      -12.7402     7.7778    -5.9934 C.3   318 CCL4   0.3246 
1588 CL     -14.4638     7.5775    -6.3813 Cl    318 CCL4  -0.0812 
1589 CL     -12.0380     6.2142    -5.5253 Cl    318 CCL4  -0.0812 
1590 CL     -11.8785     8.4134    -7.4115 Cl    318 CCL4  -0.0812 
1591 CL      -7.4457    13.1342    -3.8021 Cl    319 CCL4  -0.0812 
1592 C       -6.1786    13.3966    -2.5965 C.3   319 CCL4   0.3246 
1593 CL      -6.7910    12.9591    -0.9902 Cl    319 CCL4  -0.0812 
1594 CL      -5.6964    15.1057    -2.6009 Cl    319 CCL4  -0.0812 
1595 CL      -4.7882    12.3757    -3.0036 Cl    319 CCL4  -0.0812 
1596 CL       8.5737     9.8870    -5.9737 Cl    320 CCL4  -0.0812 
1597 C        7.7531     8.8145    -7.1243 C.3   320 CCL4   0.3246 
1598 CL       8.9538     7.7716    -7.9129 Cl    320 CCL4  -0.0812 
1599 CL       6.9292     9.7934    -8.3533 Cl    320 CCL4  -0.0812 
1600 CL       6.5633     7.8151    -6.2610 Cl    320 CCL4  -0.0812 
1601 CL     -16.8802     6.9680    -3.5742 Cl    321 CCL4  -0.0812 
1602 C      -16.5894     5.2454    -3.2599 C.3   321 CCL4   0.3246 
1603 CL     -18.0090     4.2958    -3.7504 Cl    321 CCL4  -0.0812 
1604 CL     -16.2892     5.0105    -1.5247 Cl    321 CCL4  -0.0812 
1605 CL     -15.1756     4.7056    -4.1883 Cl    321 CCL4  -0.0812 
1606 CL      -6.8432    13.8762    -8.7879 Cl    322 CCL4  -0.0812 
1607 C       -5.8099    14.4838    -7.4778 C.3   322 CCL4   0.3246 
1608 CL      -4.5205    15.4988    -8.1525 Cl    322 CCL4  -0.0812 
1609 CL      -5.0878    13.1123    -6.6090 Cl    322 CCL4  -0.0812 
1610 CL      -6.7857    15.4572    -6.3602 Cl    322 CCL4  -0.0812 
1611 CL      -8.1772    17.0086    -9.8663 Cl    323 CCL4  -0.0812 
1612 C       -9.8918    16.8633    -9.4256 C.3   323 CCL4   0.3246 
1613 CL     -10.0843    17.1629    -7.6853 Cl    323 CCL4  -0.0812 
1614 CL     -10.4736    15.2333    -9.8185 Cl    323 CCL4  -0.0812 
1615 CL     -10.8362    18.0530   -10.3396 Cl    323 CCL4  -0.0812 
1616 CL      -3.2591     9.2814    -8.9128 Cl    324 CCL4  -0.0812 
1617 C       -4.9702     8.8735    -9.1589 C.3   324 CCL4   0.3246 
1618 CL      -5.1772     8.1315   -10.7563 Cl    324 CCL4  -0.0812 
1619 CL      -5.9450    10.3520    -9.0617 Cl    324 CCL4  -0.0812 
1620 CL      -5.5081     7.7321    -7.9100 Cl    324 CCL4  -0.0812 
1621 CL      -6.5293     9.7414    -5.0259 Cl    325 CCL4  -0.0812 
1622 C       -8.2592     9.4503    -5.3053 C.3   325 CCL4   0.3246 
1623 CL      -8.7425    10.2018    -6.8386 Cl    325 CCL4  -0.0812 
1624 CL      -9.2067    10.1533    -3.9805 Cl    325 CCL4  -0.0812 
1625 CL      -8.5669     7.7047    -5.3735 Cl    325 CCL4  -0.0812 
1626 CL      -2.4896    14.7879    -4.2651 Cl    326 CCL4  -0.0812 
1627 C       -1.0502    14.2386    -3.3823 C.3   326 CCL4   0.3246 
1628 CL      -1.1970    12.5058    -3.0222 Cl    326 CCL4  -0.0812 
1629 CL      -0.8998    15.1457    -1.8640 Cl    326 CCL4  -0.0812 
1630 CL       0.3896    14.5142    -4.3798 Cl    326 CCL4  -0.0812 
1631 CL     -12.2788    12.3112    -5.3004 Cl    327 CCL4  -0.0812 
1632 C      -11.5499    13.2417    -6.6208 C.3   327 CCL4   0.3246 
1633 CL     -11.4333    12.2252    -8.0716 Cl    327 CCL4  -0.0812 
1634 CL      -9.9295    13.7758    -6.1447 Cl    327 CCL4  -0.0812 
1635 CL     -12.5586    14.6596    -6.9585 Cl    327 CCL4  -0.0812 
1636 CL       3.0273    16.2118    -2.7065 Cl    328 CCL4  -0.0812 
1637 C        4.6688    15.9952    -2.0681 C.3   328 CCL4   0.3246 
1638 CL       5.8383    16.7453    -3.1705 Cl    328 CCL4  -0.0812 
1639 CL       5.0236    14.2609    -1.9166 Cl    328 CCL4  -0.0812 
1640 CL       4.7861    16.7685    -0.4777 Cl    328 CCL4  -0.0812 
1641 CL     -14.4128    13.2513    -9.8970 Cl    329 CCL4  -0.0812 
1642 C      -15.4868    12.4170    -8.7564 C.3   329 CCL4   0.3246 
1643 CL     -17.0000    11.9735    -9.5695 Cl    329 CCL4  -0.0812 
1644 CL     -15.8456    13.4996    -7.4022 Cl    329 CCL4  -0.0812 
1645 CL     -14.6917    10.9510    -8.1488 Cl    329 CCL4  -0.0812 
1646 CL       3.7112     8.5772   -10.5055 Cl    330 CCL4  -0.0812 
1647 C        4.1507     6.9106   -10.0852 C.3   330 CCL4   0.3246 
1648 CL       3.3363     6.4458    -8.5781 Cl    330 CCL4  -0.0812 
1649 CL       5.9072     6.8079    -9.8642 Cl    330 CCL4  -0.0812 
1650 CL       3.6526     5.8163   -11.3915 Cl    330 CCL4  -0.0812 
1651 CL     -10.3602     7.3338    -2.0054 Cl    331 CCL4  -0.0812 
1652 C      -11.8815     7.4430    -1.0963 C.3   331 CCL4   0.3246 
1653 CL     -11.6452     6.8371     0.5566 Cl    331 CCL4  -0.0812 
1654 CL     -13.1207     6.4703    -1.9070 Cl    331 CCL4  -0.0812 
1655 CL     -12.4101     9.1329    -1.0377 Cl    331 CCL4  -0.0812 
1656 CL     -17.7171     8.9097     1.6753 Cl    332 CCL4  -0.0812 
1657 C      -16.1752     9.4021     0.9389 C.3   332 CCL4   0.3246 
1658 CL     -16.0223    11.1694     1.0092 Cl    332 CCL4  -0.0812 
1659 CL     -16.1346     8.8708    -0.7526 Cl    332 CCL4  -0.0812 
1660 CL     -14.8196     8.6594     1.8156 Cl    332 CCL4  -0.0812 
1661 CL       5.0211    16.2224    -8.3072 Cl    333 CCL4  -0.0812 
1662 C        4.8348    17.7069    -7.3537 C.3   333 CCL4   0.3246 
1663 CL       6.3253    18.0206    -6.4445 Cl    333 CCL4  -0.0812 
1664 CL       3.4763    17.5183    -6.2251 Cl    333 CCL4  -0.0812 
1665 CL       4.5203    19.0723    -8.4404 Cl    333 CCL4  -0.0812 
1666 CL     -11.8091    18.2668    -4.3787 Cl    334 CCL4  -0.0812 
1667 C      -13.4466    18.7157    -4.8894 C.3   334 CCL4   0.3246 
1668 CL     -14.2595    19.5995    -3.5823 Cl    334 CCL4  -0.0812 
1669 CL     -14.3651    17.2443    -5.2686 Cl    334 CCL4  -0.0812 
1670 CL     -13.3457    19.7536    -6.3260 Cl    334 CCL4  -0.0812 
1671 CL      -5.3888    18.3601    -4.5775 Cl    335 CCL4  -0.0812 
1672 C       -6.7378    19.2458    -5.3220 C.3   335 CCL4   0.3246 
1673 CL      -6.6336    19.1149    -7.0913 Cl    335 CCL4  -0.0812 
1674 CL      -6.6537    20.9570    -4.8497 Cl    335 CCL4  -0.0812 
1675 CL      -8.2754    18.5526    -4.7700 Cl    335 CCL4  -0.0812 
1676 CL     -16.4489    18.6682    -7.7129 Cl    336 CCL4  -0.0812 
1677 C      -15.8883    17.7326    -9.1123 C.3   336 CCL4   0.3246 
1678 CL     -16.8926    16.2817    -9.2950 Cl    336 CCL4  -0.0812 
1679 CL     -14.1927    17.2608    -8.8749 Cl    336 CCL4  -0.0812 
1680 CL     -16.0253    18.7268   -10.5725 Cl    336 CCL4  -0.0812 
1681 CL      -5.2113    21.3269    -0.9526 Cl    337 CCL4  -0.0812 
1682 C       -4.6492    21.9313     0.6214 C.3   337 CCL4   0.3246 
1683 CL      -3.8648    23.5105     0.4086 Cl    337 CCL4  -0.0812 
1684 CL      -3.4811    20.7864     1.3123 Cl    337 CCL4  -0.0812 
1685 CL      -6.0364    22.1004     1.7177 Cl    337 CCL4  -0.0812 
1686 CL       0.7885    20.7098   -14.6315 Cl    338 CCL4  -0.0812 
1687 C        0.8976    22.4066   -14.1158 C.3   338 CCL4   0.3246 
1688 CL       0.3823    23.4574   -15.4502 Cl    338 CCL4  -0.0812 
1689 CL       2.5766    22.7901   -13.6781 Cl    338 CCL4  -0.0812 
1690 CL      -0.1588    22.6684   -12.7112 Cl    338 CCL4  -0.0812 
1691 CL      -2.2786    13.5013   -12.7350 Cl    339 CCL4  -0.0812 
1692 C       -2.5263    12.1563   -11.6031 C.3   339 CCL4   0.3246 
1693 CL      -3.5321    12.7054   -10.2489 Cl    339 CCL4  -0.0812 
1694 CL      -0.9584    11.5943   -10.9894 Cl    339 CCL4  -0.0812 
1695 CL      -3.3397    10.8202   -12.4373 Cl    339 CCL4  -0.0812 
1696 CL       2.1093    14.2416     0.3147 Cl    340 CCL4  -0.0812 
1697 C        2.6911    13.5384     1.8375 C.3   340 CCL4   0.3246 
1698 CL       1.5654    13.9425     3.1475 Cl    340 CCL4  -0.0812 
1699 CL       4.2996    14.1798     2.2218 Cl    340 CCL4  -0.0812 
1700 CL       2.7892    11.7745     1.6649 Cl    340 CCL4  -0.0812 
1701 CL       2.8477    16.7779    25.0471 Cl    341 CCL4  -0.0812 
1702 C        4.3538    17.7005    24.8487 C.3   341 CCL4   0.3246 
1703 CL       5.7073    16.8031    25.5661 Cl    341 CCL4  -0.0812 
1704 CL       4.1981    19.2740    25.6575 Cl    341 CCL4  -0.0812 
1705 CL       4.6666    17.9523    23.1188 Cl    341 CCL4  -0.0812 
1706 CL       2.7830    11.5297   -12.3307 Cl    342 CCL4  -0.0812 
1707 C        2.9921    13.2881   -12.2070 C.3   342 CCL4   0.3246 
1708 CL       3.5060    13.7159   -10.5654 Cl    342 CCL4  -0.0812 
1709 CL       1.4569    14.0985   -12.5777 Cl    342 CCL4  -0.0812 
1710 CL       4.2316    13.8138   -13.3575 Cl    342 CCL4  -0.0812 
1711 CL       2.2722    20.0260   -11.2759 Cl    343 CCL4  -0.0812 
1712 C        1.7538    18.3442   -11.0363 C.3   343 CCL4   0.3246 
1713 CL       0.4317    17.9586   -12.1588 Cl    343 CCL4  -0.0812 
1714 CL       1.1900    18.1400    -9.3663 Cl    343 CCL4  -0.0812 
1715 CL       3.1213    17.2530   -11.3381 Cl    343 CCL4  -0.0812 
1716 CL      -0.1213    13.7574   -15.8577 Cl    344 CCL4  -0.0812 
1717 C        0.4455    12.0764   -15.9604 C.3   344 CCL4   0.3246 
1718 CL      -0.2056    11.3183   -17.4296 Cl    344 CCL4  -0.0812 
1719 CL      -0.1031    11.1732   -14.5335 Cl    344 CCL4  -0.0812 
1720 CL       2.2190    12.0554   -16.0226 Cl    344 CCL4  -0.0812 
1721 CL      -2.6707     8.5016   -15.0548 Cl    345 CCL4  -0.0812 
1722 C       -2.6303     7.0434   -14.0427 C.3   345 CCL4   0.3246 
1723 CL      -2.1058     7.4591   -12.3982 Cl    345 CCL4  -0.0812 
1724 CL      -1.4885     5.8790   -14.7454 Cl    345 CCL4  -0.0812 
1725 CL      -4.2553     6.3328   -13.9742 Cl    345 CCL4  -0.0812 
1726 CL       2.5373     5.9377   -14.7960 Cl    346 CCL4  -0.0812 
1727 C        2.1202     7.6605   -14.6876 C.3   346 CCL4   0.3246 
1728 CL       1.2304     7.9655   -13.1831 Cl    346 CCL4  -0.0812 
1729 CL       1.1137     8.1107   -16.0800 Cl    346 CCL4  -0.0812 
1730 CL       3.6023     8.6334   -14.6907 Cl    346 CCL4  -0.0812 
1731 CL       1.3144    14.7446    -7.8648 Cl    347 CCL4  -0.0812 
1732 C       -0.4354    14.8863    -8.1366 C.3   347 CCL4   0.3246 
1733 CL      -1.2518    13.4163    -7.5620 Cl    347 CCL4  -0.0812 
1734 CL      -0.7443    15.0957    -9.8707 Cl    347 CCL4  -0.0812 
1735 CL      -1.0607    16.2947    -7.2536 Cl    347 CCL4  -0.0812 
1736 CL      -3.1924    17.6146   -10.8098 Cl    348 CCL4  -0.0812 
1737 C       -4.2663    17.1687   -12.1532 C.3   348 CCL4   0.3246 
1738 CL      -5.1324    15.6699   -11.7531 Cl    348 CCL4  -0.0812 
1739 CL      -3.2996    16.9215   -13.6238 Cl    348 CCL4  -0.0812 
1740 CL      -5.4417    18.4726   -12.4277 Cl    348 CCL4  -0.0812 
1741 CL       1.0870    11.2508    -5.9503 Cl    349 CCL4  -0.0812 
1742 C        1.6989    10.2641    -7.2932 C.3   349 CCL4   0.3246 
1743 CL       1.7557    11.2489    -8.7644 Cl    349 CCL4  -0.0812 
1744 CL       0.6169     8.8777    -7.5541 Cl    349 CCL4  -0.0812 
1745 CL       3.3343     9.6900    -6.9114 Cl    349 CCL4  -0.0812 
1746 CL       2.0622     4.3328    -3.7380 Cl    350 CCL4  -0.0812 
1747 C        3.2535     5.5435    -4.2558 C.3   350 CCL4   0.3246 
1748 CL       2.3949     6.9468    -4.9175 Cl    350 CCL4  -0.0812 
1749 CL       4.3141     4.8409    -5.4940 Cl    350 CCL4  -0.0812 
1750 CL       4.2183     6.0600    -2.8573 Cl    350 CCL4  -0.0812 
1751 CL     -15.6324    10.9378    -4.6289 Cl    351 CCL4  -0.0812 
1752 C      -15.7398    12.1257    -3.3143 C.3   351 CCL4   0.3246 
1753 CL     -15.6766    13.7695    -3.9797 Cl    351 CCL4  -0.0812 
1754 CL     -17.2719    11.8973    -2.4526 Cl    351 CCL4  -0.0812 
1755 CL     -14.3835    11.8984    -2.1921 Cl    351 CCL4  -0.0812 
1756 CL       0.4249    19.5894     2.0427 Cl    352 CCL4  -0.0812 
1757 C        1.9109    18.9929     1.2770 C.3   352 CCL4   0.3246 
1758 CL       3.2313    20.1481     1.5549 Cl    352 CCL4  -0.0812 
1759 CL       1.6373    18.8083    -0.4680 Cl    352 CCL4  -0.0812 
1760 CL       2.3475    17.4218     1.9769 Cl    352 CCL4  -0.0812 
1761 CL      -3.4895     8.7261    -3.2845 Cl    353 CCL4  -0.0812 
1762 C       -2.3565     8.8053    -4.6488 C.3   353 CCL4   0.3246 
1763 CL      -2.6195     7.4220    -5.7268 Cl    353 CCL4  -0.0812 
1764 CL      -0.6973     8.7381    -4.0229 Cl    353 CCL4  -0.0812 
1765 CL      -2.6009    10.3207    -5.5420 Cl    353 CCL4  -0.0812 
1766 CL      -3.0139    21.9397    24.9881 Cl    354 CCL4  -0.0812 
1767 C       -3.6567    23.5635    24.6586 C.3   354 CCL4   0.3246 
1768 CL      -3.0582    24.6967    25.8869 Cl    354 CCL4  -0.0812 
1769 CL      -5.4310    23.5168    24.7117 Cl    354 CCL4  -0.0812 
1770 CL      -3.1263    24.0977    23.0490 Cl    354 CCL4  -0.0812 
1771 CL     -15.8425    18.8158     6.5078 Cl    355 CCL4  -0.0812 
1772 C      -16.8800    19.9265     7.4243 C.3   355 CCL4   0.3246 
1773 CL     -18.2975    20.3599     6.4451 Cl    355 CCL4  -0.0812 
1774 CL     -15.9705    21.3990     7.8151 Cl    355 CCL4  -0.0812 
1775 CL     -17.4040    19.1335     8.9243 Cl    355 CCL4  -0.0812 
1776 CL      -5.7603    16.7037     4.8847 Cl    356 CCL4  -0.0812 
1777 C       -5.2218    17.1372     6.5218 C.3   356 CCL4   0.3246 
1778 CL      -5.7069    15.8703     7.6635 Cl    356 CCL4  -0.0812 
1779 CL      -5.9632    18.6788     6.9984 Cl    356 CCL4  -0.0812 
1780 CL      -3.4545    17.2927     6.5487 Cl    356 CCL4  -0.0812 
1781 CL      -6.4504     7.2933     9.7715 Cl    357 CCL4  -0.0812 
1782 C       -7.8526     7.8490     8.8336 C.3   357 CCL4   0.3246 
1783 CL      -9.1977     6.7147     9.0608 Cl    357 CCL4  -0.0812 
1784 CL      -7.4295     7.9244     7.1099 Cl    357 CCL4  -0.0812 
1785 CL      -8.3387     9.4619     9.3929 Cl    357 CCL4  -0.0812 
1786 CL     -13.6715    19.1185     9.5540 Cl    358 CCL4  -0.0812 
1787 C      -12.2233    18.0929     9.6063 C.3   358 CCL4   0.3246 
1788 CL     -11.8852    17.6224    11.2833 Cl    358 CCL4  -0.0812 
1789 CL     -10.8429    19.0016     8.9592 Cl    358 CCL4  -0.0812 
1790 CL     -12.4925    16.6303     8.6350 Cl    358 CCL4  -0.0812 
1791 CL      -6.3716    14.7133    11.0428 Cl    359 CCL4  -0.0812 
1792 C       -7.7578    13.8456    10.3471 C.3   359 CCL4   0.3246 
1793 CL      -7.2414    12.9390     8.9113 Cl    359 CCL4  -0.0812 
1794 CL      -9.0173    15.0095     9.8853 Cl    359 CCL4  -0.0812 
1795 CL      -8.4050    12.7130    11.5491 Cl    359 CCL4  -0.0812 
1796 CL     -10.9742     6.6318     5.8692 Cl    360 CCL4  -0.0812 
1797 C      -12.7214     6.7765     5.5800 C.3   360 CCL4   0.3246 
1798 CL     -13.1764     5.7622     4.1937 Cl    360 CCL4  -0.0812 
1799 CL     -13.1240     8.4681     5.2316 Cl    360 CCL4  -0.0812 
1800 CL     -13.6119     6.2517     7.0243 Cl    360 CCL4  -0.0812 
1801 CL      -9.3441     6.6971    12.8201 Cl    361 CCL4  -0.0812 
1802 C       -9.5105     5.8771    14.3879 C.3   361 CCL4   0.3246 
1803 CL      -8.7027     4.2973    14.3307 Cl    361 CCL4  -0.0812 
1804 CL     -11.2331     5.6493    14.7542 Cl    361 CCL4  -0.0812 
1805 CL      -8.7597     6.8646    15.6557 Cl    361 CCL4  -0.0812 
1806 CL     -12.2167     8.7391     9.7404 Cl    362 CCL4  -0.0812 
1807 C      -12.4116     9.4724    11.3481 C.3   362 CCL4   0.3246 
1808 CL     -10.8518    10.1103    11.9018 Cl    362 CCL4  -0.0812 
1809 CL     -12.9772     8.2511    12.5068 Cl    362 CCL4  -0.0812 
1810 CL     -13.5973    10.7922    11.2518 Cl    362 CCL4  -0.0812 
1811 CL       5.3814     5.4427     5.7721 Cl    363 CCL4  -0.0812 
1812 C        5.3823     4.7681     4.1290 C.3   363 CCL4   0.3246 
1813 CL       3.8396     3.9503     3.8169 Cl    363 CCL4  -0.0812 
1814 CL       6.7095     3.6044     3.9591 Cl    363 CCL4  -0.0812 
1815 CL       5.5937     6.0762     2.9510 Cl    363 CCL4  -0.0812 
1816 CL      -3.5163    13.6990     0.4544 Cl    364 CCL4  -0.0812 
1817 C       -2.7401    12.1485     0.8421 C.3   364 CCL4   0.3246 
1818 CL      -3.2096    10.9310    -0.3605 Cl    364 CCL4  -0.0812 
1819 CL      -3.2440    11.6065     2.4551 Cl    364 CCL4  -0.0812 
1820 CL      -0.9742    12.3359     0.8128 Cl    364 CCL4  -0.0812 
1821 CL      -6.4455    13.3410     2.9457 Cl    365 CCL4  -0.0812 
1822 C       -6.5709    12.7269     4.6086 C.3   365 CCL4   0.3246 
1823 CL      -7.7972    13.6553     5.4876 Cl    365 CCL4  -0.0812 
1824 CL      -5.0079    12.9015     5.4281 Cl    365 CCL4  -0.0812 
1825 CL      -7.0399    11.0141     4.5846 Cl    365 CCL4  -0.0812 
1826 CL     -12.2604    11.9540     0.9360 Cl    366 CCL4  -0.0812 
1827 C      -11.5782    11.4949     2.5073 C.3   366 CCL4   0.3246 
1828 CL     -12.8198    11.7059     3.7514 Cl    366 CCL4  -0.0812 
1829 CL     -10.1759    12.5234     2.8701 Cl    366 CCL4  -0.0812 
1830 CL     -11.0701     9.7943     2.4781 Cl    366 CCL4  -0.0812 
1831 CL      -9.0837    19.1379     5.0072 Cl    367 CCL4  -0.0812 
1832 C       -9.7631    17.5176     5.2716 C.3   367 CCL4   0.3246 
1833 CL     -11.5284    17.6378     5.4093 Cl    367 CCL4  -0.0812 
1834 CL      -9.1027    16.8322     6.7687 Cl    367 CCL4  -0.0812 
1835 CL      -9.3398    16.4620     3.9073 Cl    367 CCL4  -0.0812 
1836 CL     -15.4393    14.1999     3.0934 Cl    368 CCL4  -0.0812 
1837 C      -14.3347    15.3219     3.9127 C.3   368 CCL4   0.3246 
1838 CL     -14.3433    14.9908     5.6567 Cl    368 CCL4  -0.0812 
1839 CL     -14.8598    16.9928     3.6265 Cl    368 CCL4  -0.0812 
1840 CL     -12.6950    15.1054     3.2705 Cl    368 CCL4  -0.0812 
1841 CL     -10.4693    10.8517     6.4060 Cl    369 CCL4  -0.0812 
1842 C      -11.4073    12.0935     7.2658 C.3   369 CCL4   0.3246 
1843 CL     -11.1389    13.6794     6.5136 Cl    369 CCL4  -0.0812 
1844 CL     -10.8899    12.1496     8.9575 Cl    369 CCL4  -0.0812 
1845 CL     -13.1338    11.6933     7.2029 Cl    369 CCL4  -0.0812 
1846 CL       7.7483    15.9953     7.9790 Cl    370 CCL4  -0.0812 
1847 C        6.6717    14.6701     8.4714 C.3   370 CCL4   0.3246 
1848 CL       5.5593    15.2418     9.7320 Cl    370 CCL4  -0.0812 
1849 CL       7.6350    13.3284     9.1143 Cl    370 CCL4  -0.0812 
1850 CL       5.7467    14.1051     7.0656 Cl    370 CCL4  -0.0812 
1851 CL       7.3668     8.6758    11.0729 Cl    371 CCL4  -0.0812 
1852 C        7.0479     9.1144     9.3822 C.3   371 CCL4   0.3246 
1853 CL       8.5076     9.8363     8.6737 Cl    371 CCL4  -0.0812 
1854 CL       5.7087    10.2815     9.3208 Cl    371 CCL4  -0.0812 
1855 CL       6.6090     7.6594     8.4650 Cl    371 CCL4  -0.0812 
1856 CL       3.8560     9.0174     6.4110 Cl    372 CCL4  -0.0812 
1857 C        4.5966    10.1121     5.2259 C.3   372 CCL4   0.3246 
1858 CL       6.3013    10.3687     5.6447 Cl    372 CCL4  -0.0812 
1859 CL       3.7356    11.6655     5.2345 Cl    372 CCL4  -0.0812 
1860 CL       4.4920     9.3908     3.6070 Cl    372 CCL4  -0.0812 
1861 CL     -10.3132    11.9341    17.5061 Cl    373 CCL4  -0.0812 
1862 C       -9.7833    10.3538    16.8922 C.3   373 CCL4   0.3246 
1863 CL     -11.1092     9.1826    17.0618 Cl    373 CCL4  -0.0812 
1864 CL      -8.3731     9.8043    17.8198 Cl    373 CCL4  -0.0812 
1865 CL      -9.3354    10.4938    15.1804 Cl    373 CCL4  -0.0812 
1866 CL      -8.7168    14.0656    14.8255 Cl    374 CCL4  -0.0812 
1867 C       -7.0193    13.8660    15.3079 C.3   374 CCL4   0.3246 
1868 CL      -6.1108    15.3332    14.8845 Cl    374 CCL4  -0.0812 
1869 CL      -6.3167    12.4688    14.4659 Cl    374 CCL4  -0.0812 
1870 CL      -6.9334    13.5976    17.0611 Cl    374 CCL4  -0.0812 
1871 CL      -7.5418    18.2420    10.2551 Cl    375 CCL4  -0.0812 
1872 C       -7.8428    18.5778    11.9721 C.3   375 CCL4   0.3246 
1873 CL      -6.3164    19.0238    12.7647 Cl    375 CCL4  -0.0812 
1874 CL      -8.5206    17.1350    12.7552 Cl    375 CCL4  -0.0812 
1875 CL      -8.9984    19.9153    12.1156 Cl    375 CCL4  -0.0812 
1876 CL      -3.9186     8.9180    13.1991 Cl    376 CCL4  -0.0812 
1877 C       -5.5100     8.3635    13.7551 C.3   376 CCL4   0.3246 
1878 CL      -6.7800     9.2251    12.8605 Cl    376 CCL4  -0.0812 
1879 CL      -5.6713     8.7011    15.4917 Cl    376 CCL4  -0.0812 
1880 CL      -5.6645     6.6150    13.4692 Cl    376 CCL4  -0.0812 
1881 CL     -11.9294    14.0493    11.8419 Cl    377 CCL4  -0.0812 
1882 C      -12.6620    14.0461    13.4582 C.3   377 CCL4   0.3246 
1883 CL     -14.4314    14.0735    13.3083 Cl    377 CCL4  -0.0812 
1884 CL     -12.1192    15.4798    14.3561 Cl    377 CCL4  -0.0812 
1885 CL     -12.1709    12.5782    14.3279 Cl    377 CCL4  -0.0812 
1886 CL       3.2585     7.2467     9.6679 Cl    378 CCL4  -0.0812 
1887 C        3.5224     5.9756    10.8786 C.3   378 CCL4   0.3246 
1888 CL       2.6554     6.3859    12.3698 Cl    378 CCL4  -0.0812 
1889 CL       5.2523     5.8421    11.2445 Cl    378 CCL4  -0.0812 
1890 CL       2.9275     4.4296    10.2411 Cl    378 CCL4  -0.0812 
1891 CL     -11.6189    18.2638     1.8925 Cl    379 CCL4  -0.0812 
1892 C      -11.7137    19.3936     0.5318 C.3   379 CCL4   0.3246 
1893 CL     -10.7750    20.8508     0.9178 Cl    379 CCL4  -0.0812 
1894 CL     -13.4111    19.8311     0.2394 Cl    379 CCL4  -0.0812 
1895 CL     -11.0436    18.6218    -0.9182 Cl    379 CCL4  -0.0812 
1896 CL     -13.8868    20.5739     3.7975 Cl    380 CCL4  -0.0812 
1897 C      -13.0130    21.6880     4.8680 C.3   380 CCL4   0.3246 
1898 CL     -14.0225    23.1141     5.1863 Cl    380 CCL4  -0.0812 
1899 CL     -11.4986    22.1922     4.0923 Cl    380 CCL4  -0.0812 
1900 CL     -12.6422    20.8675     6.3954 Cl    380 CCL4  -0.0812 
1901 CL       6.8357    19.0186     9.7394 Cl    381 CCL4  -0.0812 
1902 C        5.6098    19.7532    10.7893 C.3   381 CCL4   0.3246 
1903 CL       6.4157    20.8113    11.9673 Cl    381 CCL4  -0.0812 
1904 CL       4.7201    18.4749    11.6435 Cl    381 CCL4  -0.0812 
1905 CL       4.4727    20.7020     9.8068 Cl    381 CCL4  -0.0812 
1906 CL      -5.1904    17.5623     0.4375 Cl    382 CCL4  -0.0812 
1907 C       -6.9590    17.6799     0.3470 C.3   382 CCL4   0.3246 
1908 CL      -7.6674    16.0778     0.6270 Cl    382 CCL4  -0.0812 
1909 CL      -7.4276    18.2655    -1.2615 Cl    382 CCL4  -0.0812 
1910 CL      -7.5501    18.8103     1.5829 Cl    382 CCL4  -0.0812 
1911 CL     -15.4110    20.7859    14.9543 Cl    383 CCL4  -0.0812 
1912 C      -14.9326    19.8046    13.5535 C.3   383 CCL4   0.3246 
1913 CL     -14.8637    18.0929    14.0225 Cl    383 CCL4  -0.0812 
1914 CL     -13.3332    20.3307    12.9903 Cl    383 CCL4  -0.0812 
1915 CL     -16.1217    20.0094    12.2512 Cl    383 CCL4  -0.0812 
1916 CL      -0.2340    20.8805     5.3039 Cl    384 CCL4  -0.0812 
1917 C        0.9470    22.1517     5.6784 C.3   384 CCL4   0.3246 
1918 CL       0.1113    23.7116     5.8310 Cl    384 CCL4  -0.0812 
1919 CL       2.1560    22.2517     4.3812 Cl    384 CCL4  -0.0812 
1920 CL       1.7588    21.7591     7.2046 Cl    384 CCL4  -0.0812 
1921 CL      -3.3632    12.7590     8.5775 Cl    385 CCL4  -0.0812 
1922 C       -3.7657    11.2372     9.3994 C.3   385 CCL4   0.3246 
1923 CL      -4.5771    11.5891    10.9391 Cl    385 CCL4  -0.0812 
1924 CL      -2.2793    10.3225     9.7177 Cl    385 CCL4  -0.0812 
1925 CL      -4.8403    10.2745     8.3646 Cl    385 CCL4  -0.0812 
1926 CL       2.6442    15.8810     6.0593 Cl    386 CCL4  -0.0812 
1927 C        3.7360    17.2576     5.7941 C.3   386 CCL4   0.3246 
1928 CL       4.5165    17.6964     7.3252 Cl    386 CCL4  -0.0812 
1929 CL       2.8177    18.6524     5.1911 Cl    386 CCL4  -0.0812 
1930 CL       4.9732    16.8060     4.6045 Cl    386 CCL4  -0.0812 
1931 CL       1.8385    10.4727    10.2696 Cl    387 CCL4  -0.0812 
1932 C        1.8868    12.2374    10.0857 C.3   387 CCL4   0.3246 
1933 CL       2.6644    12.9569    11.5111 Cl    387 CCL4  -0.0812 
1934 CL       0.2319    12.8605     9.9334 Cl    387 CCL4  -0.0812 
1935 CL       2.8111    12.6569     8.6289 Cl    387 CCL4  -0.0812 
1936 CL       0.9687    18.4361     8.2112 Cl    388 CCL4  -0.0812 
1937 C        0.5268    17.0506     9.2250 C.3   388 CCL4   0.3246 
1938 CL      -0.5652    15.9835     8.3180 Cl    388 CCL4  -0.0812 
1939 CL      -0.2851    17.6299    10.6922 Cl    388 CCL4  -0.0812 
1940 CL       1.9931    16.1603     9.6800 Cl    388 CCL4  -0.0812 
1941 CL      -0.2455    12.8844     6.1495 Cl    389 CCL4  -0.0812 
1942 C       -0.4293    11.1518     5.8033 C.3   389 CCL4   0.3246 
1943 CL       0.1543    10.8015     4.1619 Cl    389 CCL4  -0.0812 
1944 CL      -2.1380    10.6979     5.9288 Cl    389 CCL4  -0.0812 
1945 CL       0.5122    10.2093     6.9733 Cl    389 CCL4  -0.0812 
1946 CL      -3.1780     6.9914     7.7692 Cl    390 CCL4  -0.0812 
1947 C       -2.1100     6.4104     9.0658 C.3   390 CCL4   0.3246 
1948 CL      -0.5770     7.3078     9.0424 Cl    390 CCL4  -0.0812 
1949 CL      -1.7690     4.6833     8.8336 Cl    390 CCL4  -0.0812 
1950 CL      -2.9171     6.6567    10.6255 Cl    390 CCL4  -0.0812 
1951 CL      -0.3977    16.8341     4.4197 Cl    391 CCL4  -0.0812 
1952 C       -1.6553    16.3826     3.2503 C.3   391 CCL4   0.3246 
1953 CL      -2.4966    14.9275     3.8217 Cl    391 CCL4  -0.0812 
1954 CL      -0.9208    16.0555     1.6681 Cl    391 CCL4  -0.0812 
1955 CL      -2.8099    17.7184     3.0876 Cl    391 CCL4  -0.0812 
1956 CL       0.2245     4.5717     4.1051 Cl    392 CCL4  -0.0812 
1957 C        0.8144     5.8804     5.1534 C.3   392 CCL4   0.3246 
1958 CL       1.5093     5.2013     6.6402 Cl    392 CCL4  -0.0812 
1959 CL      -0.5356     6.9479     5.5623 Cl    392 CCL4  -0.0812 
1960 CL       2.0456     6.8221     4.2889 Cl    392 CCL4  -0.0812 
1961 CL      -0.4469    14.8864    13.0418 Cl    393 CCL4  -0.0812 
1962 C       -2.2101    15.0474    12.8887 C.3   393 CCL4   0.3246 
1963 CL      -3.0039    13.7744    13.8379 Cl    393 CCL4  -0.0812 
1964 CL      -2.6721    14.8845    11.1856 Cl    393 CCL4  -0.0812 
1965 CL      -2.7206    16.6416    13.4854 Cl    393 CCL4  -0.0812 
1966 CL      -2.6415    20.3628    11.4872 Cl    394 CCL4  -0.0812 
1967 C       -3.4059    19.8330     9.9744 C.3   394 CCL4   0.3246 
1968 CL      -3.9111    18.1375    10.1281 Cl    394 CCL4  -0.0812 
1969 CL      -2.2520    19.9831     8.6334 Cl    394 CCL4  -0.0812 
1970 CL      -4.8230    20.8493     9.6497 Cl    394 CCL4  -0.0812 
1971 CL      -0.7924     9.1099    15.1783 Cl    395 CCL4  -0.0812 
1972 C       -0.0340     9.5695    13.6385 C.3   395 CCL4   0.3246 
1973 CL      -0.7407    11.0907    13.0554 Cl    395 CCL4  -0.0812 
1974 CL      -0.3174     8.2944    12.4401 Cl    395 CCL4  -0.0812 
1975 CL       1.7138     9.7808    13.8767 Cl    395 CCL4  -0.0812 
1976 CL      -3.7642    20.6727     5.1225 Cl    396 CCL4  -0.0812 
1977 C       -4.1056    22.3986     5.3472 C.3   396 CCL4   0.3246 
1978 CL      -3.4625    22.9400     6.9104 Cl    396 CCL4  -0.0812 
1979 CL      -5.8620    22.6606     5.3043 Cl    396 CCL4  -0.0812 
1980 CL      -3.3285    23.3212     4.0474 Cl    396 CCL4  -0.0812 
1981 CL       7.8182    -5.9690   -15.5904 Cl    397 CCL4  -0.0812 
1982 C        7.7131    -4.4721   -14.6391 C.3   397 CCL4   0.3246 
1983 CL       6.1894    -3.6421   -15.0071 Cl    397 CCL4  -0.0812 
1984 CL       9.0711    -3.4083   -15.0594 Cl    397 CCL4  -0.0812 
1985 CL       7.7689    -4.8631   -12.9074 Cl    397 CCL4  -0.0812 
1986 CL      18.3147    23.7509    -8.4867 Cl    398 CCL4  -0.0812 
1987 C       17.2495    24.5720    -9.6484 C.3   398 CCL4   0.3246 
1988 CL      15.9079    23.4916   -10.0869 Cl    398 CCL4  -0.0812 
1989 CL      18.1785    24.9929   -11.1034 Cl    398 CCL4  -0.0812 
1990 CL      16.5964    26.0524    -8.9178 Cl    398 CCL4  -0.0812 
1991 CL      11.1248    -6.2390   -13.7667 Cl    399 CCL4  -0.0812 
1992 C       12.0403    -7.7592   -13.7725 C.3   399 CCL4   0.3246 
1993 CL      12.0738    -8.4287   -12.1305 Cl    399 CCL4  -0.0812 
1994 CL      13.6991    -7.4477   -14.3230 Cl    399 CCL4  -0.0812 
1995 CL      11.2631    -8.9217   -14.8681 Cl    399 CCL4  -0.0812 
1996 CL      12.8296     2.5581   -13.4556 Cl    400 CCL4  -0.0812 
1997 C       13.8084     3.5425   -14.5600 C.3   400 CCL4   0.3246 
1998 CL      12.8332     4.8951   -15.1634 Cl    400 CCL4  -0.0812 
1999 CL      14.3356     2.5478   -15.9334 Cl    400 CCL4  -0.0812 
2000 CL      15.2252     4.1707   -13.6913 Cl    400 CCL4  -0.0812 
2001 CL      18.0097    -9.3677   -13.2292 Cl    401 CCL4  -0.0812 
2002 C       18.5340   -10.9453   -12.6035 C.3   401 CCL4   0.3246 
2003 CL      20.3032   -10.9702   -12.4833 Cl    401 CCL4  -0.0812 
2004 CL      17.9957   -12.2353   -13.6988 Cl    401 CCL4  -0.0812 
2005 CL      17.8311   -11.2137   -10.9982 Cl    401 CCL4  -0.0812 
2006 CL      11.7821    23.0772    -9.7908 Cl    402 CCL4  -0.0812 
2007 C       11.2981    24.6680    -9.1655 C.3   402 CCL4   0.3246 
2008 CL      12.7101    25.4853    -8.4618 Cl    402 CCL4  -0.0812 
2009 CL      10.0488    24.4601    -7.9180 Cl    402 CCL4  -0.0812 
2010 CL      10.6532    25.6507   -10.4966 Cl    402 CCL4  -0.0812 
2011 CL      14.4061     4.4251    20.9645 Cl    403 CCL4  -0.0812 
2012 C       16.0445     4.9664    21.3869 C.3   403 CCL4   0.3246 
2013 CL      16.0005     5.8900    22.9053 Cl    403 CCL4  -0.0812 
2014 CL      16.6749     5.9948    20.0822 Cl    403 CCL4  -0.0812 
2015 CL      17.0974     3.5513    21.5922 Cl    403 CCL4  -0.0812 
2016 CL      16.5049    -6.7573    -0.4168 Cl    404 CCL4  -0.0812 
2017 C       16.1151    -8.1444    -1.4506 C.3   404 CCL4   0.3246 
2018 CL      16.7646    -7.8511    -3.0760 Cl    404 CCL4  -0.0812 
2019 CL      14.3547    -8.3502    -1.5318 Cl    404 CCL4  -0.0812 
2020 CL      16.8364    -9.6191    -0.7766 Cl    404 CCL4  -0.0812 
2021 CL       8.9406    -9.8739     0.0844 Cl    405 CCL4  -0.0812 
2022 C       10.4955    -9.4500    -0.6568 C.3   405 CCL4   0.3246 
2023 CL      11.8168   -10.0152     0.3880 Cl    405 CCL4  -0.0812 
2024 CL      10.5952    -7.6873    -0.8533 Cl    405 CCL4  -0.0812 
2025 CL      10.6192   -10.2298    -2.2468 Cl    405 CCL4  -0.0812 
2026 CL      20.3573    -5.9417    21.6682 Cl    406 CCL4  -0.0812 
2027 C       19.0966    -7.0912    22.1577 C.3   406 CCL4   0.3246 
2028 CL      17.5131    -6.2865    22.1187 Cl    406 CCL4  -0.0812 
2029 CL      19.4281    -7.6641    23.8049 Cl    406 CCL4  -0.0812 
2030 CL      19.0898    -8.4711    21.0391 Cl    406 CCL4  -0.0812 
2031 CL      14.7266   -13.5548   -12.0993 Cl    407 CCL4  -0.0812 
2032 C       13.6766   -12.1532   -12.3923 C.3   407 CCL4   0.3246 
2033 CL      14.6464   -10.8054   -13.0208 Cl    407 CCL4  -0.0812 
2034 CL      12.9055   -11.6696   -10.8705 Cl    407 CCL4  -0.0812 
2035 CL      12.4262   -12.5843   -13.5775 Cl    407 CCL4  -0.0812 
2036 CL       9.2295     5.4636   -13.6846 Cl    408 CCL4  -0.0812 
2037 C        8.5354     4.4618   -12.3964 C.3   408 CCL4   0.3246 
2038 CL       6.7703     4.4231   -12.5681 Cl    408 CCL4  -0.0812 
2039 CL       8.9601     5.1447   -10.8140 Cl    408 CCL4  -0.0812 
2040 CL       9.1796     2.8140   -12.5250 Cl    408 CCL4  -0.0812 
2041 CL      13.1743    24.5512    -4.4865 Cl    409 CCL4  -0.0812 
2042 C       14.0065    23.2340    -5.3386 C.3   409 CCL4   0.3246 
2043 CL      12.8408    22.3520    -6.3462 Cl    409 CCL4  -0.0812 
2044 CL      14.7368    22.1326    -4.1529 Cl    409 CCL4  -0.0812 
2045 CL      15.2805    23.9006    -6.3752 Cl    409 CCL4  -0.0812 
2046 CL      17.5221    -7.6448   -10.0079 Cl    410 CCL4  -0.0812 
2047 C       15.7898    -7.5838    -9.6174 C.3   410 CCL4   0.3246 
2048 CL      15.5685    -6.8606    -8.0092 Cl    410 CCL4  -0.0812 
2049 CL      15.1238    -9.2278    -9.6155 Cl    410 CCL4  -0.0812 
2050 CL      14.9413    -6.6087   -10.8377 Cl    410 CCL4  -0.0812 
2051 CL      15.2447     2.5583    -4.5164 Cl    411 CCL4  -0.0812 
2052 C       14.6461     3.9088    -3.5296 C.3   411 CCL4   0.3246 
2053 CL      13.9594     3.2882    -2.0139 Cl    411 CCL4  -0.0812 
2054 CL      13.3914     4.7917    -4.4238 Cl    411 CCL4  -0.0812 
2055 CL      15.9933     5.0017    -3.1600 Cl    411 CCL4  -0.0812 
2056 CL      13.8023   -11.5309    -3.2971 Cl    412 CCL4  -0.0812 
2057 C       15.0040   -11.2702    -4.5764 C.3   412 CCL4   0.3246 
2058 CL      14.8417   -12.5421    -5.8031 Cl    412 CCL4  -0.0812 
2059 CL      16.6318   -11.3331    -3.8716 Cl    412 CCL4  -0.0812 
2060 CL      14.7408    -9.6814    -5.3287 Cl    412 CCL4  -0.0812 
2061 CL      12.1948   -10.8638    -7.5206 Cl    413 CCL4  -0.0812 
2062 C       10.6552   -11.3326    -6.7776 C.3   413 CCL4   0.3246 
2063 CL       9.5341   -11.8740    -8.0443 Cl    413 CCL4  -0.0812 
2064 CL       9.9684    -9.9369    -5.9226 Cl    413 CCL4  -0.0812 
2065 CL      10.9324   -12.6533    -5.6236 Cl    413 CCL4  -0.0812 
2066 CL      16.7422    19.6652    -0.0708 Cl    414 CCL4  -0.0812 
2067 C       17.0236    21.4153     0.0284 C.3   414 CCL4   0.3246 
2068 CL      17.8920    21.7863     1.5318 Cl    414 CCL4  -0.0812 
2069 CL      15.4645    22.2679     0.0068 Cl    414 CCL4  -0.0812 
2070 CL      18.0033    21.9405    -1.3550 Cl    414 CCL4  -0.0812 
2071 CL      19.0316    -4.1868   -15.2268 Cl    415 CCL4  -0.0812 
2072 C       18.1537    -4.6489   -13.7534 C.3   415 CCL4   0.3246 
2073 CL      16.9391    -5.8839   -14.1390 Cl    415 CCL4  -0.0812 
2074 CL      17.3504    -3.2207   -13.0726 Cl    415 CCL4  -0.0812 
2075 CL      19.2939    -5.3087   -12.5676 Cl    415 CCL4  -0.0812 
2076 CL      16.2468     0.9030    -7.9008 Cl    416 CCL4  -0.0812 
2077 C       16.6731     0.8398    -9.6224 C.3   416 CCL4   0.3246 
2078 CL      16.2025    -0.7325   -10.2959 Cl    416 CCL4  -0.0812 
2079 CL      18.4264     1.0604    -9.7921 Cl    416 CCL4  -0.0812 
2080 CL      15.8160     2.1231   -10.5014 Cl    416 CCL4  -0.0812 
2081 CL      12.8350    -0.7364   -11.8208 Cl    417 CCL4  -0.0812 
2082 C       11.0954    -1.0291   -12.0267 C.3   417 CCL4   0.3246 
2083 CL      10.7817    -2.7757   -12.0065 Cl    417 CCL4  -0.0812 
2084 CL      10.5595    -0.3538   -13.5776 Cl    417 CCL4  -0.0812 
2085 CL      10.2041    -0.2528   -10.7033 Cl    417 CCL4  -0.0812 
2086 CL      17.8136    -0.6924   -15.7534 Cl    418 CCL4  -0.0812 
2087 C       17.5898     0.4525   -14.4148 C.3   418 CCL4   0.3246 
2088 CL      18.7378     0.0863   -13.1155 Cl    418 CCL4  -0.0812 
2089 CL      15.9384     0.3099   -13.7813 Cl    418 CCL4  -0.0812 
2090 CL      17.8717     2.1042   -15.0022 Cl    418 CCL4  -0.0812 
2091 CL      11.7164     5.3208    -8.3078 Cl    419 CCL4  -0.0812 
2092 C       12.0372     3.5760    -8.3246 C.3   419 CCL4   0.3246 
2093 CL      10.8511     2.7434    -7.3037 Cl    419 CCL4  -0.0812 
2094 CL      13.6623     3.2713    -7.6919 Cl    419 CCL4  -0.0812 
2095 CL      11.9266     2.9646    -9.9872 Cl    419 CCL4  -0.0812 
2096 CL      12.5664    -4.1558   -16.3360 Cl    420 CCL4  -0.0812 
2097 C       13.7845    -3.1861   -15.4815 C.3   420 CCL4   0.3246 
2098 CL      13.3361    -1.4698   -15.5612 Cl    420 CCL4  -0.0812 
2099 CL      15.3673    -3.4163   -16.2534 Cl    420 CCL4  -0.0812 
2100 CL      13.8676    -3.7014   -13.7831 Cl    420 CCL4  -0.0812 
2101 CL      14.1075    -5.4768    -3.5199 Cl    421 CCL4  -0.0812 
2102 C       12.5888    -5.7524    -4.3923 C.3   421 CCL4   0.3246 
2103 CL      11.3216    -4.7027    -3.7275 Cl    421 CCL4  -0.0812 
2104 CL      12.0973    -7.4500    -4.2297 Cl    421 CCL4  -0.0812 
2105 CL      12.8357    -5.3773    -6.1045 Cl    421 CCL4  -0.0812 
2106 CL      12.8661    -0.2649    -8.2301 Cl    422 CCL4  -0.0812 
2107 C       12.9008    -1.9239    -7.6033 C.3   422 CCL4   0.3246 
2108 CL      12.0028    -2.9941    -8.6966 Cl    422 CCL4  -0.0812 
2109 CL      12.1509    -1.9565    -5.9976 Cl    422 CCL4  -0.0812 
2110 CL      14.5803    -2.4814    -7.4884 Cl    422 CCL4  -0.0812 
2111 CL       9.2340     1.9737    -4.2479 Cl    423 CCL4  -0.0812 
2112 C       10.4259     0.9457    -3.4272 C.3   423 CCL4   0.3246 
2113 CL       9.9079    -0.7475    -3.5252 Cl    423 CCL4  -0.0812 
2114 CL      10.5587     1.4276    -1.7232 Cl    423 CCL4  -0.0812 
2115 CL      12.0049     1.1249    -4.2165 Cl    423 CCL4  -0.0812 
2116 CL      15.0312    -2.0375    -3.9973 Cl    424 CCL4  -0.0812 
2117 C       14.6971    -1.7650    -2.2784 C.3   424 CCL4   0.3246 
2118 CL      15.6369    -2.9213    -1.3123 Cl    424 CCL4  -0.0812 
2119 CL      12.9633    -1.9902    -1.9679 Cl    424 CCL4  -0.0812 
2120 CL      15.1586    -0.1075    -1.8425 Cl    424 CCL4  -0.0812 
2121 CL       8.6534    -3.2953    -5.9658 Cl    425 CCL4  -0.0812 
2122 C        8.1186    -2.2231    -7.2749 C.3   425 CCL4   0.3246 
2123 CL       9.0378    -0.7058    -7.2044 Cl    425 CCL4  -0.0812 
2124 CL       6.3881    -1.8740    -7.0897 Cl    425 CCL4  -0.0812 
2125 CL       8.3914    -3.0185    -8.8383 Cl    425 CCL4  -0.0812 
2126 CL       9.5918    -6.4991    -7.4182 Cl    426 CCL4  -0.0812 
2127 C       10.2880    -7.1251    -8.9257 C.3   426 CCL4   0.3246 
2128 CL       9.4320    -8.6010    -9.4049 Cl    426 CCL4  -0.0812 
2129 CL      12.0032    -7.4996    -8.6789 Cl    426 CCL4  -0.0812 
2130 CL      10.1252    -5.9082   -10.2060 Cl    426 CCL4  -0.0812 
2131 CL       7.2984    -6.6579     8.2174 Cl    427 CCL4  -0.0812 
2132 C        7.4244    -4.9687     8.7470 C.3   427 CCL4   0.3246 
2133 CL       6.1658    -4.0110     7.9444 Cl    427 CCL4  -0.0812 
2134 CL       9.0251    -4.3322     8.3181 Cl    427 CCL4  -0.0812 
2135 CL       7.2036    -4.8727    10.5060 Cl    427 CCL4  -0.0812 
2136 CL      15.5546    22.8511     9.9139 Cl    428 CCL4  -0.0812 
2137 C       16.0992    24.4958     9.5202 C.3   428 CCL4   0.3246 
2138 CL      15.9900    24.7499     7.7665 Cl    428 CCL4  -0.0812 
2139 CL      17.7843    24.7036    10.0437 Cl    428 CCL4  -0.0812 
2140 CL      15.0713    25.6784    10.3580 Cl    428 CCL4  -0.0812 
2141 CL      11.7589    -6.1392     9.7022 Cl    429 CCL4  -0.0812 
2142 C       11.8335    -7.9046     9.5483 C.3   429 CCL4   0.3246 
2143 CL      12.1007    -8.6300    11.1474 Cl    429 CCL4  -0.0812 
2144 CL      13.1659    -8.3448     8.4628 Cl    429 CCL4  -0.0812 
2145 CL      10.3054    -8.5029     8.8762 Cl    429 CCL4  -0.0812 
2146 CL      13.3441     1.7175     9.7065 Cl    430 CCL4  -0.0812 
2147 C       13.5045     3.4019    10.2355 C.3   430 CCL4   0.3246 
2148 CL      12.4978     3.6663    11.6746 Cl    430 CCL4  -0.0812 
2149 CL      12.9778     4.4721     8.9211 Cl    430 CCL4  -0.0812 
2150 CL      15.1984     3.7445    10.6383 Cl    430 CCL4  -0.0812 
2151 CL      16.6786    -9.1273     8.4356 Cl    431 CCL4  -0.0812 
2152 C       16.2493   -10.7070     9.1173 C.3   431 CCL4   0.3246 
2153 CL      17.7282   -11.5977     9.5332 Cl    431 CCL4  -0.0812 
2154 CL      15.3175   -11.6211     7.9164 Cl    431 CCL4  -0.0812 
2155 CL      15.2700   -10.4805    10.5810 Cl    431 CCL4  -0.0812 
2156 CL      12.4320    21.2204     8.8181 Cl    432 CCL4  -0.0812 
2157 C       11.2028    22.4450     9.1949 C.3   432 CCL4   0.3246 
2158 CL      11.9593    23.8074    10.0437 Cl    432 CCL4  -0.0812 
2159 CL       9.9561    21.7230    10.2305 Cl    432 CCL4  -0.0812 
2160 CL      10.4623    23.0310     7.6916 Cl    432 CCL4  -0.0812 
2161 CL      13.0592     2.7838     5.7988 Cl    433 CCL4  -0.0812 
2162 C       14.2767     3.6007     4.7976 C.3   433 CCL4   0.3246 
2163 CL      15.0736     4.8676     5.7499 Cl    433 CCL4  -0.0812 
2164 CL      13.4825     4.3401     3.3973 Cl    433 CCL4  -0.0812 
2165 CL      15.4854     2.4229     4.2410 Cl    433 CCL4  -0.0812 
2166 CL      14.5374   -12.0786     1.9786 Cl    434 CCL4  -0.0812 
2167 C       14.0547   -13.3053     3.1692 C.3   434 CCL4   0.3246 
2168 CL      12.3581   -13.0563     3.6274 Cl    434 CCL4  -0.0812 
2169 CL      15.0780   -13.1595     4.6120 Cl    434 CCL4  -0.0812 
2170 CL      14.2443   -14.9232     2.4602 Cl    434 CCL4  -0.0812 
2171 CL      15.9055    -7.0948     4.9284 Cl    435 CCL4  -0.0812 
2172 C       15.6983    -8.7397     4.2915 C.3   435 CCL4   0.3246 
2173 CL      14.1273    -9.3812     4.8105 Cl    435 CCL4  -0.0812 
2174 CL      16.9936    -9.7857     4.9024 Cl    435 CCL4  -0.0812 
2175 CL      15.7669    -8.7023     2.5204 Cl    435 CCL4  -0.0812 
2176 CL       9.0832   -11.5988     3.4964 Cl    436 CCL4  -0.0812 
2177 C        9.0194    -9.9424     4.1326 C.3   436 CCL4   0.3246 
2178 CL       8.7637    -9.9818     5.8859 Cl    436 CCL4  -0.0812 
2179 CL       7.6807    -9.0669     3.3679 Cl    436 CCL4  -0.0812 
2180 CL      10.5484    -9.1151     3.7825 Cl    436 CCL4  -0.0812 
2181 CL      12.5478   -13.9751     7.3494 Cl    437 CCL4  -0.0812 
2182 C       11.5157   -12.6286     7.8608 C.3   437 CCL4   0.3246 
2183 CL      11.8461   -11.2252     6.8299 Cl    437 CCL4  -0.0812 
2184 CL      11.8708   -12.2203     9.5528 Cl    437 CCL4  -0.0812 
2185 CL       9.8091   -13.0953     7.7021 Cl    437 CCL4  -0.0812 
2186 CL       9.8015     2.6394     9.4040 Cl    438 CCL4  -0.0812 
2187 C        8.4625     3.3552    10.3244 C.3   438 CCL4   0.3246 
2188 CL       7.1565     3.8000     9.2053 Cl    438 CCL4  -0.0812 
2189 CL       9.0274     4.8026    11.1876 Cl    438 CCL4  -0.0812 
2190 CL       7.8654     2.1707    11.5029 Cl    438 CCL4  -0.0812 
2191 CL       9.6537     5.4183     2.6335 Cl    439 CCL4  -0.0812 
2192 C        9.9674     3.9319     1.7188 C.3   439 CCL4   0.3246 
2193 CL       8.5439     3.5283     0.7350 Cl    439 CCL4  -0.0812 
2194 CL      10.3043     2.6046     2.8486 Cl    439 CCL4  -0.0812 
2195 CL      11.3699     4.1827     0.6616 Cl    439 CCL4  -0.0812 
2196 CL      11.7787    22.3411    15.0785 Cl    440 CCL4  -0.0812 
2197 C       11.9936    20.9615    13.9801 C.3   440 CCL4   0.3246 
2198 CL      10.4025    20.3296    13.5066 Cl    440 CCL4  -0.0812 
2199 CL      12.9167    19.6845    14.8001 Cl    440 CCL4  -0.0812 
2200 CL      12.8800    21.4913    12.5369 Cl    440 CCL4  -0.0812 
2201 CL      16.7339    -7.1908    11.4073 Cl    441 CCL4  -0.0812 
2202 C       15.7050    -6.6372    12.7408 C.3   441 CCL4   0.3246 
2203 CL      16.6715    -5.6607    13.8668 Cl    441 CCL4  -0.0812 
2204 CL      15.0464    -8.0500    13.5905 Cl    441 CCL4  -0.0812 
2205 CL      14.3759    -5.6519    12.0938 Cl    441 CCL4  -0.0812 
2206 CL      10.8305   -14.4279    13.1402 Cl    442 CCL4  -0.0812 
2207 C        9.1375   -14.7648    12.7207 C.3   442 CCL4   0.3246 
2208 CL       8.0710   -13.6596    13.6127 Cl    442 CCL4  -0.0812 
2209 CL       8.7395   -16.4405    13.1503 Cl    442 CCL4  -0.0812 
2210 CL       8.9076   -14.5348    10.9772 Cl    442 CCL4  -0.0812 
2211 CL      17.1310    -3.5478     7.1553 Cl    443 CCL4  -0.0812 
2212 C       16.9887    -4.6316     8.5507 C.3   443 CCL4   0.3246 
2213 CL      15.6468    -5.7606     8.2883 Cl    443 CCL4  -0.0812 
2214 CL      16.6824    -3.6767    10.0145 Cl    443 CCL4  -0.0812 
2215 CL      18.4968    -5.5428     8.7424 Cl    443 CCL4  -0.0812 
2216 CL      16.4315    -0.0347    15.2956 Cl    444 CCL4  -0.0812 
2217 C       16.4653    -0.2883    13.5380 C.3   444 CCL4   0.3246 
2218 CL      16.0553    -1.9781    13.1756 Cl    444 CCL4  -0.0812 
2219 CL      18.0911     0.0713    12.9214 Cl    444 CCL4  -0.0812 
2220 CL      15.2834     0.7876    12.7637 Cl    444 CCL4  -0.0812 
2221 CL      13.1686    -1.6539    10.8793 Cl    445 CCL4  -0.0812 
2222 C       11.4091    -1.4165    10.8110 C.3   445 CCL4   0.3246 
2223 CL      10.5987    -2.9134    11.3117 Cl    445 CCL4  -0.0812 
2224 CL      10.9152    -1.0044     9.1548 Cl    445 CCL4  -0.0812 
2225 CL      10.9497    -0.0963    11.9058 Cl    445 CCL4  -0.0812 
2226 CL      17.7942    -0.1087     6.8528 Cl    446 CCL4  -0.0812 
2227 C       16.3496     0.4262     7.7288 C.3   446 CCL4   0.3246 
2228 CL      16.4160    -0.1635     9.4014 Cl    446 CCL4  -0.0812 
2229 CL      14.8963    -0.2128     6.9336 Cl    446 CCL4  -0.0812 
2230 CL      16.2988     2.1979     7.7263 Cl    446 CCL4  -0.0812 
2231 CL      12.7868    -6.9261     2.1672 Cl    447 CCL4  -0.0812 
2232 C       13.2092    -5.2881     1.6395 C.3   447 CCL4   0.3246 
2233 CL      12.0886    -4.1321     2.3829 Cl    447 CCL4  -0.0812 
2234 CL      13.0760    -5.1834    -0.1251 Cl    447 CCL4  -0.0812 
2235 CL      14.8748    -4.9156     2.1312 Cl    447 CCL4  -0.0812 
2236 CL      12.8667    -0.1083     3.6832 Cl    448 CCL4  -0.0812 
2237 C       12.9486    -0.2091     1.9140 C.3   448 CCL4   0.3246 
2238 CL      13.4795     1.3480     1.2476 Cl    448 CCL4  -0.0812 
2239 CL      11.3456    -0.6197     1.2706 Cl    448 CCL4  -0.0812 
2240 CL      14.1092    -1.4639     1.4522 Cl    448 CCL4  -0.0812 
2241 CL       7.8927     0.1661     4.0893 Cl    449 CCL4  -0.0812 
2242 C        8.3385     0.1568     5.8097 C.3   449 CCL4   0.3246 
2243 CL       8.0878    -1.4685     6.4681 Cl    449 CCL4  -0.0812 
2244 CL       7.3243     1.3056     6.7040 Cl    449 CCL4  -0.0812 
2245 CL      10.0450     0.6139     5.9858 Cl    449 CCL4  -0.0812 
2246 CL      12.5413    -5.5192     5.9776 Cl    450 CCL4  -0.0812 
2247 C       12.8199    -3.7746     6.1743 C.3   450 CCL4   0.3246 
2248 CL      11.3680    -2.8767     5.6921 Cl    450 CCL4  -0.0812 
2249 CL      14.1889    -3.2774     5.1621 Cl    450 CCL4  -0.0812 
2250 CL      13.1866    -3.4156     7.8701 Cl    450 CCL4  -0.0812 
2251 CL       9.0421    -5.8347     5.0167 Cl    451 CCL4  -0.0812 
2252 C        8.3512    -5.2005     3.5098 C.3   451 CCL4   0.3246 
2253 CL       6.5941    -5.4443     3.5233 Cl    451 CCL4  -0.0812 
2254 CL       9.0615    -6.0631     2.1284 Cl    451 CCL4  -0.0812 
2255 CL       8.6980    -3.4631     3.3752 Cl    451 CCL4  -0.0812 
2256 CL       9.2988    -2.3634    16.2629 Cl    452 CCL4  -0.0812 
2257 C        8.0787    -1.7828    15.1103 C.3   452 CCL4   0.3246 
2258 CL       8.5220    -0.1568    14.5482 Cl    452 CCL4  -0.0812 
2259 CL       6.4926    -1.7186    15.9078 Cl    452 CCL4  -0.0812 
2260 CL       8.0047    -2.8925    13.7258 Cl    452 CCL4  -0.0812 
2261 CL       9.1185    -6.0762    15.4991 Cl    453 CCL4  -0.0812 
2262 C       10.0116    -6.9321    14.2245 C.3   453 CCL4   0.3246 
2263 CL       9.5405    -8.6449    14.2147 Cl    453 CCL4  -0.0812 
2264 CL      11.7547    -6.7952    14.5325 Cl    453 CCL4  -0.0812 
2265 CL       9.6355    -6.2086    12.6499 Cl    453 CCL4  -0.0812 
2266 CL       8.0517    19.3280   -13.1503 Cl    454 CCL4  -0.0812 
2267 C        7.3751    19.3633   -11.5086 C.3   454 CCL4   0.3246 
2268 CL       6.0748    20.5708   -11.4283 Cl    454 CCL4  -0.0812 
2269 CL       8.6564    19.7829   -10.3521 Cl    454 CCL4  -0.0812 
2270 CL       6.7169    17.7659   -11.1068 Cl    454 CCL4  -0.0812 
2271 CL      17.8650     6.7242   -12.8315 Cl    455 CCL4  -0.0812 
2272 C       18.1221     8.4235   -13.2796 C.3   455 CCL4   0.3246 
2273 CL      17.3929     8.7444   -14.8681 Cl    455 CCL4  -0.0812 
2274 CL      19.8611     8.7547   -13.3593 Cl    455 CCL4  -0.0812 
2275 CL      17.3788     9.4741   -12.0571 Cl    455 CCL4  -0.0812 
2276 CL      12.7880    17.1637   -12.2012 Cl    456 CCL4  -0.0812 
2277 C       13.2475    15.7537   -13.1781 C.3   456 CCL4   0.3246 
2278 CL      12.9378    14.2669   -12.2606 Cl    456 CCL4  -0.0812 
2279 CL      14.9748    15.8494   -13.5773 Cl    456 CCL4  -0.0812 
2280 CL      12.2882    15.7331   -14.6732 Cl    456 CCL4  -0.0812 
2281 CL      14.9250     5.9128     0.4039 Cl    457 CCL4  -0.0812 
2282 C       16.3188     6.2270     1.4585 C.3   457 CCL4   0.3246 
2283 CL      17.0794     4.6834     1.9002 Cl    457 CCL4  -0.0812 
2284 CL      15.7770     7.0704     2.9229 Cl    457 CCL4  -0.0812 
2285 CL      17.4935     7.2475     0.6070 Cl    457 CCL4  -0.0812 
2286 CL      18.4790    15.2197   -12.2924 Cl    458 CCL4  -0.0812 
2287 C       18.1422    13.4858   -12.4763 C.3   458 CCL4   0.3246 
2288 CL      19.6564    12.5673   -12.3683 Cl    458 CCL4  -0.0812 
2289 CL      17.4058    13.1875   -14.0602 Cl    458 CCL4  -0.0812 
2290 CL      17.0261    12.9656   -11.1956 Cl    458 CCL4  -0.0812 
2291 CL      10.5247     9.2373   -17.3793 Cl    459 CCL4  -0.0812 
2292 C       10.9063     7.6201   -18.0081 C.3   459 CCL4   0.3246 
2293 CL      12.6520     7.3317   -17.8820 Cl    459 CCL4  -0.0812 
2294 CL      10.4120     7.5127   -19.7113 Cl    459 CCL4  -0.0812 
2295 CL      10.0403     6.3942   -17.0601 Cl    459 CCL4  -0.0812 
2296 CL      17.3771     7.4850    -8.8988 Cl    460 CCL4  -0.0812 
2297 C       16.8138     5.8018    -8.9154 C.3   460 CCL4   0.3246 
2298 CL      18.0481     4.7722    -9.6643 Cl    460 CCL4  -0.0812 
2299 CL      15.3080     5.6944    -9.8522 Cl    460 CCL4  -0.0812 
2300 CL      16.5309     5.2558    -7.2487 Cl    460 CCL4  -0.0812 
2301 CL      11.6320     8.0705   -14.0161 Cl    461 CCL4  -0.0812 
2302 C       12.6743     7.8121   -12.6038 C.3   461 CCL4   0.3246 
2303 CL      14.3615     7.6814   -13.1324 Cl    461 CCL4  -0.0812 
2304 CL      12.2030     6.3136   -11.7789 Cl    461 CCL4  -0.0812 
2305 CL      12.5031     9.1833   -11.4912 Cl    461 CCL4  -0.0812 
2306 CL      13.4719    15.2525     2.0081 Cl    462 CCL4  -0.0812 
2307 C       13.9438    15.1772     0.2985 C.3   462 CCL4   0.3246 
2308 CL      15.3491    16.2271     0.0268 Cl    462 CCL4  -0.0812 
2309 CL      12.6040    15.7350    -0.7219 Cl    462 CCL4  -0.0812 
2310 CL      14.3485    13.4986    -0.1193 Cl    462 CCL4  -0.0812 
2311 CL       7.5251    17.2766     1.6317 Cl    463 CCL4  -0.0812 
2312 C        8.4324    16.0236     0.7613 C.3   463 CCL4   0.3246 
2313 CL       9.9839    15.7569     1.5725 Cl    463 CCL4  -0.0812 
2314 CL       8.7207    16.5478    -0.9094 Cl    463 CCL4  -0.0812 
2315 CL       7.5059    14.5106     0.7517 Cl    463 CCL4  -0.0812 
2316 CL      18.0809    16.6226    21.3384 Cl    464 CCL4  -0.0812 
2317 C       17.2942    15.7421    22.6656 C.3   464 CCL4   0.3246 
2318 CL      15.5480    16.0684    22.6415 Cl    464 CCL4  -0.0812 
2319 CL      17.9728    16.2863    24.2136 Cl    464 CCL4  -0.0812 
2320 CL      17.5765    13.9986    22.4675 Cl    464 CCL4  -0.0812 
2321 CL      13.9946    10.0466   -16.0262 Cl    465 CCL4  -0.0812 
2322 C       13.6765    11.4806   -15.0301 C.3   465 CCL4   0.3246 
2323 CL      14.2714    12.9231   -15.8756 Cl    465 CCL4  -0.0812 
2324 CL      14.5164    11.3136   -13.4765 Cl    465 CCL4  -0.0812 
2325 CL      11.9297    11.6405   -14.7452 Cl    465 CCL4  -0.0812 
2326 CL      14.2467    10.6108    -6.3990 Cl    466 CCL4  -0.0812 
2327 C       13.6687     8.9326    -6.4541 C.3   466 CCL4   0.3246 
2328 CL      12.0659     8.8209    -5.6971 Cl    466 CCL4  -0.0812 
2329 CL      14.8031     7.8913    -5.5781 Cl    466 CCL4  -0.0812 
2330 CL      13.5724     8.4004    -8.1437 Cl    466 CCL4  -0.0812 
2331 CL       8.9815     7.6336    -3.2600 Cl    467 CCL4  -0.0812 
2332 C        9.1845     5.9086    -3.6254 C.3   467 CCL4   0.3246 
2333 CL       7.5961     5.1143    -3.6456 Cl    467 CCL4  -0.0812 
2334 CL      10.2060     5.1597    -2.3865 Cl    467 CCL4  -0.0812 
2335 CL       9.9640     5.7260    -5.2062 Cl    467 CCL4  -0.0812 
2336 CL      17.5675    16.0437    -8.7872 Cl    468 CCL4  -0.0812 
2337 C       15.9468    16.7061    -9.0720 C.3   468 CCL4   0.3246 
2338 CL      15.4080    17.5926    -7.6304 Cl    468 CCL4  -0.0812 
2339 CL      14.8182    15.3783    -9.4071 Cl    468 CCL4  -0.0812 
2340 CL      15.9966    17.8078   -10.4642 Cl    468 CCL4  -0.0812 
2341 CL      13.3435    13.8824    -3.8332 Cl    469 CCL4  -0.0812 
2342 C       14.9421    14.5314    -4.2465 C.3   469 CCL4   0.3246 
2343 CL      15.3247    14.1458    -5.9374 Cl    469 CCL4  -0.0812 
2344 CL      16.1700    13.8224    -3.1814 Cl    469 CCL4  -0.0812 
2345 CL      14.9313    16.2887    -4.0259 Cl    469 CCL4  -0.0812 
2346 CL      11.6381    13.6220    -8.9388 Cl    470 CCL4  -0.0812 
2347 C       10.6636    12.4456    -8.0354 C.3   470 CCL4   0.3246 
2348 CL       8.9522    12.9052    -8.1129 Cl    470 CCL4  -0.0812 
2349 CL      11.1901    12.4252    -6.3435 Cl    470 CCL4  -0.0812 
2350 CL      10.8733    10.8315    -8.7417 Cl    470 CCL4  -0.0812 
2351 CL      15.8452     8.3710    -2.2518 Cl    471 CCL4  -0.0812 
2352 C       14.3485     9.1472    -1.7019 C.3   471 CCL4   0.3246 
2353 CL      14.4993     9.5553     0.0193 Cl    471 CCL4  -0.0812 
2354 CL      12.9772     8.0402    -1.9394 Cl    471 CCL4  -0.0812 
2355 CL      14.0812    10.6290    -2.6390 Cl    471 CCL4  -0.0812 
2356 CL       7.5019     7.0694     0.0811 Cl    472 CCL4  -0.0812 
2357 C        7.8584     8.6959     0.7040 C.3   472 CCL4   0.3246 
2358 CL       6.5047     9.7825     0.3197 Cl    472 CCL4  -0.0812 
2359 CL       9.3505     9.2998    -0.0451 Cl    472 CCL4  -0.0812 
2360 CL       8.0746     8.6329     2.4647 Cl    472 CCL4  -0.0812 
2361 CL      13.6097    19.2062    -2.4275 Cl    473 CCL4  -0.0812 
2362 C       12.3196    19.1396    -3.6468 C.3   473 CCL4   0.3246 
2363 CL      11.3590    20.6325    -3.5816 Cl    473 CCL4  -0.0812 
2364 CL      11.2665    17.7492    -3.3193 Cl    473 CCL4  -0.0812 
2365 CL      13.0384    18.9692    -5.2614 Cl    473 CCL4  -0.0812 
2366 CL       9.8375    18.7272    -6.8941 Cl    474 CCL4  -0.0812 
2367 C       10.3109    17.1805    -7.6296 C.3   474 CCL4   0.3246 
2368 CL       8.9297    16.4931    -8.5077 Cl    474 CCL4  -0.0812 
2369 CL      10.8216    16.0487    -6.3602 Cl    474 CCL4  -0.0812 
2370 CL      11.6577    17.4496    -8.7555 Cl    474 CCL4  -0.0812 
2371 CL      10.5269    11.1519    -3.0774 Cl    475 CCL4  -0.0812 
2372 C        9.6608    12.4983    -2.3095 C.3   475 CCL4   0.3246 
2373 CL       9.7539    13.9424    -3.3396 Cl    475 CCL4  -0.0812 
2374 CL       7.9579    12.0534    -2.0845 Cl    475 CCL4  -0.0812 
2375 CL      10.3996    12.8467    -0.7329 Cl    475 CCL4  -0.0812 
2376 CL       8.0719    18.4487     4.9643 Cl    476 CCL4  -0.0812 
2377 C        8.3097    19.9307     5.9069 C.3   476 CCL4   0.3246 
2378 CL       6.7408    20.4935     6.5206 Cl    476 CCL4  -0.0812 
2379 CL       9.0199    21.1895     4.8745 Cl    476 CCL4  -0.0812 
2380 CL       9.4037    19.5854     7.2623 Cl    476 CCL4  -0.0812 
2381 CL      17.7781     6.2829    10.7603 Cl    477 CCL4  -0.0812 
2382 C       17.1112     7.5466     9.7098 C.3   477 CCL4   0.3246 
2383 CL      15.9434     6.8218     8.5873 Cl    477 CCL4  -0.0812 
2384 CL      18.4241     8.3062     8.7907 Cl    477 CCL4  -0.0812 
2385 CL      16.3023     8.7750    10.7017 Cl    477 CCL4  -0.0812 
2386 CL      13.0570    17.5824     7.5736 Cl    478 CCL4  -0.0812 
2387 C       12.3577    16.2533     6.6254 C.3   478 CCL4   0.3246 
2388 CL      11.3047    15.2720     7.6627 Cl    478 CCL4  -0.0812 
2389 CL      13.6585    15.2361     5.9738 Cl    478 CCL4  -0.0812 
2390 CL      11.4025    16.9219     5.2900 Cl    478 CCL4  -0.0812 
2391 CL      18.1892    14.5988     7.2507 Cl    479 CCL4  -0.0812 
2392 C       17.0984    13.2018     7.3297 C.3   479 CCL4   0.3246 
2393 CL      17.9908    11.7984     7.9484 Cl    479 CCL4  -0.0812 
2394 CL      16.4621    12.8508     5.7085 Cl    479 CCL4  -0.0812 
2395 CL      15.7502    13.5628     8.4226 Cl    479 CCL4  -0.0812 
2396 CL      11.5868     6.3501     5.7949 Cl    480 CCL4  -0.0812 
2397 C        9.9747     6.0522     6.4783 C.3   480 CCL4   0.3246 
2398 CL       9.5205     4.3589     6.1990 Cl    480 CCL4  -0.0812 
2399 CL       8.7885     7.1193     5.6987 Cl    480 CCL4  -0.0812 
2400 CL      10.0007     6.3763     8.2226 Cl    480 CCL4  -0.0812 
2401 CL      15.5002     5.9866    13.5065 Cl    481 CCL4  -0.0812 
2402 C       16.2870     4.7477    14.5058 C.3   481 CCL4   0.3246 
2403 CL      17.5014     3.8768    13.5440 Cl    481 CCL4  -0.0812 
2404 CL      15.0616     3.6025    15.0884 Cl    481 CCL4  -0.0812 
2405 CL      17.0811     5.5263    15.8896 Cl    481 CCL4  -0.0812 
2406 CL      13.2051     7.2173    10.9740 Cl    482 CCL4  -0.0812 
2407 C       12.3076     8.0677    12.2421 C.3   482 CCL4   0.3246 
2408 CL      13.3642     9.2720    13.0098 Cl    482 CCL4  -0.0812 
2409 CL      11.7512     6.9009    13.4604 Cl    482 CCL4  -0.0812 
2410 CL      10.9091     8.8768    11.5114 Cl    482 CCL4  -0.0812 
2411 CL      11.9032    10.9108     1.9842 Cl    483 CCL4  -0.0812 
2412 C       12.2613     9.6727     3.2055 C.3   483 CCL4   0.3246 
2413 CL      11.0324     9.7332     4.4836 Cl    483 CCL4  -0.0812 
2414 CL      13.8619     9.9860     3.9112 Cl    483 CCL4  -0.0812 
2415 CL      12.2399     8.0656     2.4463 Cl    483 CCL4  -0.0812 
2416 CL      17.4815    18.9267     3.9127 Cl    484 CCL4  -0.0812 
2417 C       16.4399    17.6111     4.4867 C.3   484 CCL4   0.3246 
2418 CL      14.7796    17.9042     3.9401 Cl    484 CCL4  -0.0812 
2419 CL      16.4797    17.5636     6.2608 Cl    484 CCL4  -0.0812 
2420 CL      17.0125    16.0608     3.8334 Cl    484 CCL4  -0.0812 
2421 CL       8.5543    12.1681     3.2753 Cl    485 CCL4  -0.0812 
2422 C        9.2552    13.2190     4.5247 C.3   485 CCL4   0.3246 
2423 CL       9.1592    12.4177     6.1031 Cl    485 CCL4  -0.0812 
2424 CL       8.3540    14.7478     4.5835 Cl    485 CCL4  -0.0812 
2425 CL      10.9576    13.5419     4.1431 Cl    485 CCL4  -0.0812 
2426 CL      14.8303    10.0610     7.6071 Cl    486 CCL4  -0.0812 
2427 C       13.2112    10.5985     8.0884 C.3   486 CCL4   0.3246 
2428 CL      12.6806    11.9051     7.0123 Cl    486 CCL4  -0.0812 
2429 CL      13.2517    11.1864     9.7621 Cl    486 CCL4  -0.0812 
2430 CL      12.0824     9.2375     7.9687 Cl    486 CCL4  -0.0812 
2431 CL      12.1267     8.4194    16.8621 Cl    487 CCL4  -0.0812 
2432 C       13.7316     7.8994    17.4184 C.3   487 CCL4   0.3246 
2433 CL      13.7754     6.1268    17.5251 Cl    487 CCL4  -0.0812 
2434 CL      14.0594     8.5966    19.0192 Cl    487 CCL4  -0.0812 
2435 CL      14.9643     8.4577    16.2671 Cl    487 CCL4  -0.0812 
2436 CL      16.1130    16.7941     9.9116 Cl    488 CCL4  -0.0812 
2437 C       14.7678    16.7020    11.0676 C.3   488 CCL4   0.3246 
2438 CL      15.3878    16.2535    12.6709 Cl    488 CCL4  -0.0812 
2439 CL      13.5986    15.4777    10.5291 Cl    488 CCL4  -0.0812 
2440 CL      13.9731    18.2875    11.1616 Cl    488 CCL4  -0.0812 
2441 CL      11.7843    12.6895    12.7464 Cl    489 CCL4  -0.0812 
2442 C       10.1951    12.2859    13.4320 C.3   489 CCL4   0.3246 
2443 CL       9.0659    11.8778    12.1226 Cl    489 CCL4  -0.0812 
2444 CL       9.5696    13.6828    14.3343 Cl    489 CCL4  -0.0812 
2445 CL      10.3572    10.8980    14.5297 Cl    489 CCL4  -0.0812 
2446 CL      10.7605    19.0659     2.6147 Cl    490 CCL4  -0.0812 
2447 C       11.5787    19.9046     1.2877 C.3   490 CCL4   0.3246 
2448 CL      11.7293    21.6319     1.6769 Cl    490 CCL4  -0.0812 
2449 CL      10.6235    19.7067    -0.1941 Cl    490 CCL4  -0.0812 
2450 CL      13.1920    19.2025     1.0567 Cl    490 CCL4  -0.0812 
2451 CL      12.6830    20.4673     5.2721 Cl    491 CCL4  -0.0812 
2452 C       14.0872    21.5521     5.2257 C.3   491 CCL4   0.3246 
2453 CL      13.5527    23.2095     5.5562 Cl    491 CCL4  -0.0812 
2454 CL      14.8408    21.4902     3.6193 Cl    491 CCL4  -0.0812 
2455 CL      15.2687    21.0510     6.4540 Cl    491 CCL4  -0.0812 
2456 CL       8.4116    17.2657    12.4422 Cl    492 CCL4  -0.0812 
2457 C        9.9867    16.8595    11.7287 C.3   492 CCL4   0.3246 
2458 CL       9.8876    15.2696    10.9530 Cl    492 CCL4  -0.0812 
2459 CL      11.2203    16.8111    13.0059 Cl    492 CCL4  -0.0812 
2460 CL      10.4260    18.0778    10.5129 Cl    492 CCL4  -0.0812 
@<TRIPOS>BOND
   1    1    2  1   
   2    2    3  1   
   3    2    4  1   
   4    2    5  1   
   5    6    7  1   
   6    7    8  1   
   7    7    9  1   
   8    7   10  1   
   9   11   12  1   
  10   12   13  1   
  11   12   14  1   
  12   12   15  1   
  13   16   17  1   
  14   17   18  1   
  15   17   19  1   
  16   17   20  1   
  17   21   22  1   
  18   22   23  1   
  19   22   24  1   
  20   22   25  1   
  21   26   27  1   
  22   27   28  1   
  23   27   29  1   
  24   27   30  1   
  25   31   32  1   
  26   32   33  1   
  27   32   34  1   
  28   32   35  1   
  29   36   37  1   
  30   37   38  1   
  31   37   39  1   
  32   37   40  1   
  33   41   42  1   
  34   42   43  1   
  35   42   44  1   
  36   42   45  1   
  37   46   47  1   
  38   47   48  1   
  39   47   49  1   
  40   47   50  1   
  41   51   52  1   
  42   52   53  1   
  43   52   54  1   
  44   52   55  1   
  45   56   57  1   
  46   57   58  1   
  47   57   59  1   
  48   57   60  1   
  49   61   62  1   
  50   62   63  1   
  51   62   64  1   
  52   62   65  1   
  53   66   67  1   
  54   67   68  1   
  55   67   69  1   
  56   67   70  1   
  57   71   72  1   
  58   72   73  1   
  59   72   74  1   
  60   72   75  1   
  61   76   77  1   
  62   77   78  1   
  63   77   79  1   
  64   77   80  1   
  65   81   82  1   
  66   82   83  1   
  67   82   84  1   
  68   82   85  1   
  69   86   87  1   
  70   87   88  1   
  71   87   89  1   
  72   87   90  1   
  73   91   92  1   
  74   92   93  1   
  75   92   94  1   
  76   92   95  1   
  77   96   97  1   
  78   97   98  1   
  79   97   99  1   
  80   97  100  1   
  81  101  102  1   
  82  102  103  1   
  83  102  104  1   
  84  102  105  1   
  85  106  107  1   
  86  107  108  1   
  87  107  109  1   
  88  107  110  1   
  89  111  112  1   
  90  112  113  1   
  91  112  114  1   
  92  112  115  1   
  93  116  117  1   
  94  117  118  1   
  95  117  119  1   
  96  117  120  1   
  97  121  122  1   
  98  122  123  1   
  99  122  124  1   
 100  122  125  1   
 101  126  127  1   
 102  127  128  1   
 103  127  129  1   
 104  127  130  1   
 105  131  132  1   
 106  132  133  1   
 107  132  134  1   
 108  132  135  1   
 109  136  137  1   
 110  137  138  1   
 111  137  139  1   
 112  137  140  1   
 113  141  142  1   
 114  142  143  1   
 115  142  144  1   
 116  142  145  1   
 117  146  147  1   
 118  147  148  1   
 119  147  149  1   
 120  147  150  1   
 121  151  152  1   
 122  152  153  1   
 123  152  154  1   
 124  152  155  1   
 125  156  157  1   
 126  157  158  1   
 127  157  159  1   
 128  157  160  1   
 129  161  162  1   
 130  162  163  1   
 131  162  164  1   
 132  162  165  1   
 133  166  167  1   
 134  167  168  1   
 135  167  169  1   
 136  167  170  1   
 137  171  172  1   
 138  172  173  1   
 139  172  174  1   
 140  172  175  1   
 141  176  177  1   
 142  177  178  1   
 143  177  179  1   
 144  177  180  1   
 145  181  182  1   
 146  182  183  1   
 147  182  184  1   
 148  182  185  1   
 149  186  187  1   
 150  187  188  1   
 151  187  189  1   
 152  187  190  1   
 153  191  192  1   
 154  192  193  1   
 155  192  194  1   
 156  192  195  1   
 157  196  197  1   
 158  197  198  1   
 159  197  199  1   
 160  197  200  1   
 161  201  202  1   
 162  202  203  1   
 163  202  204  1   
 164  202  205  1   
 165  206  207  1   
 166  207  208  1   
 167  207  209  1   
 168  207  210  1   
 169  211  212  1   
 170  212  213  1   
 171  212  214  1   
 172  212  215  1   
 173  216  217  1   
 174  217  218  1   
 175  217  219  1   
 176  217  220  1   
 177  221  222  1   
 178  222  223  1   
 179  222  224  1   
 180  222  225  1   
 181  226  227  1   
 182  227  228  1   
 183  227  229  1   
 184  227  230  1   
 185  231  232  1   
 186  232  233  1   
 187  232  234  1   
 188  232  235  1   
 189  236  237  1   
 190  237  238  1   
 191  237  239  1   
 192  237  240  1   
 193  241  242  1   
 194  242  243  1   
 195  242  244  1   
 196  242  245  1   
 197  246  247  1   
 198  247  248  1   
 199  247  249  1   
 200  247  250  1   
 201  251  252  1   
 202  252  253  1   
 203  252  254  1   
 204  252  255  1   
 205  256  257  1   
 206  257  258  1   
 207  257  259  1   
 208  257  260  1   
 209  261  262  1   
 210  262  263  1   
 211  262  264  1   
 212  262  265  1   
 213  266  267  1   
 214  267  268  1   
 215  267  269  1   
 216  267  270  1   
 217  271  272  1   
 218  272  273  1   
 219  272  274  1   
 220  272  275  1   
 221  276  277  1   
 222  277  278  1   
 223  277  279  1   
 224  277  280  1   
 225  281  282  1   
 226  282  283  1   
 227  282  284  1   
 228  282  285  1   
 229  286  287  1   
 230  287  288  1   
 231  287  289  1   
 232  287  290  1   
 233  291  292  1   
 234  292  293  1   
 235  292  294  1   
 236  292  295  1   
 237  296  297  1   
 238  297  298  1   
 239  297  299  1   
 240  297  300  1   
 241  301  302  1   
 242  302  303  1   
 243  302  304  1   
 244  302  305  1   
 245  306  307  1   
 246  307  308  1   
 247  307  309  1   
 248  307  310  1   
 249  311  312  1   
 250  312  313  1   
 251  312  314  1   
 252  312  315  1   
 253  316  317  1   
 254  317  318  1   
 255  317  319  1   
 256  317  320  1   
 257  321  322  1   
 258  322  323  1   
 259  322  324  1   
 260  322  325  1   
 261  326  327  1   
 262  327  328  1   
 263  327  329  1   
 264  327  330  1   
 265  331  332  1   
 266  332  333  1   
 267  332  334  1   
 268  332  335  1   
 269  336  337  1   
 270  337  338  1   
 271  337  339  1   
 272  337  340  1   
 273  341  342  1   
 274  342  343  1   
 275  342  344  1   
 276  342  345  1   
 277  346  347  1   
 278  347  348  1   
 279  347  349  1   
 280  347  350  1   
 281  351  352  1   
 282  352  353  1   
 283  352  354  1   
 284  352  355  1   
 285  356  357  1   
 286  357  358  1   
 287  357  359  1   
 288  357  360  1   
 289  361  362  1   
 290  362  363  1   
 291  362  364  1   
 292  362  365  1   
 293  366  367  1   
 294  367  368  1   
 295  367  369  1   
 296  367  370  1   
 297  371  372  1   
 298  372  373  1   
 299  372  374  1   
 300  372  375  1   
 301  376  377  1   
 302  377  378  1   
 303  377  379  1   
 304  377  380  1   
 305  381  382  1   
 306  382  383  1   
 307  382  384  1   
 308  382  385  1   
 309  386  387  1   
 310  387  388  1   
 311  387  389  1   
 312  387  390  1   
 313  391  392  1   
 314  392  393  1   
 315  392  394  1   
 316  392  395  1   
 317  396  397  1   
 318  397  398  1   
 319  397  399  1   
 320  397  400  1   
 321  401  402  1   
 322  402  403  1   
 323  402  404  1   
 324  402  405  1   
 325  406  407  1   
 326  407  408  1   
 327  407  409  1   
 328  407  410  1   
 329  411  412  1   
 330  412  413  1   
 331  412  414  1   
 332  412  415  1   
 333  416  417  1   
 334  417  418  1   
 335  417  419  1   
 336  417  420  1   
 337  421  422  1   
 338  422  423  1   
 339  422  424  1   
 340  422  425  1   
 341  426  427  1   
 342  427  428  1   
 343  427  429  1   
 344  427  430  1   
 345  431  432  1   
 346  432  433  1   
 347  432  434  1   
 348  432  435  1   
 349  436  437  1   
 350  437  438  1   
 351  437  439  1   
 352  437  440  1   
 353  441  442  1   
 354  442  443  1   
 355  442  444  1   
 356  442  445  1   
 357  446  447  1   
 358  447  448  1   
 359  447  449  1   
 360  447  450  1   
 361  451  452  1   
 362  452  453  1   
 363  452  454  1   
 364  452  455  1   
 365  456  457  1   
 366  457  458  1   
 367  457  459  1   
 368  457  460  1   
 369  461  462  1   
 370  462  463  1   
 371  462  464  1   
 372  462  465  1   
 373  466  467  1   
 374  467  468  1   
 375  467  469  1   
 376  467  470  1   
 377  471  472  1   
 378  472  473  1   
 379  472  474  1   
 380  472  475  1   
 381  476  477  1   
 382  477  478  1   
 383  477  479  1   
 384  477  480  1   
 385  481  482  1   
 386  482  483  1   
 387  482  484  1   
 388  482  485  1   
 389  486  487  1   
 390  487  488  1   
 391  487  489  1   
 392  487  490  1   
 393  491  492  1   
 394  492  493  1   
 395  492  494  1   
 396  492  495  1   
 397  496  497  1   
 398  497  498  1   
 399  497  499  1   
 400  497  500  1   
 401  501  502  1   
 402  502  503  1   
 403  502  504  1   
 404  502  505  1   
 405  506  507  1   
 406  507  508  1   
 407  507  509  1   
 408  507  510  1   
 409  511  512  1   
 410  512  513  1   
 411  512  514  1   
 412  512  515  1   
 413  516  517  1   
 414  517  518  1   
 415  517  519  1   
 416  517  520  1   
 417  521  522  1   
 418  522  523  1   
 419  522  524  1   
 420  522  525  1   
 421  526  527  1   
 422  527  528  1   
 423  527  529  1   
 424  527  530  1   
 425  531  532  1   
 426  532  533  1   
 427  532  534  1   
 428  532  535  1   
 429  536  537  1   
 430  537  538  1   
 431  537  539  1   
 432  537  540  1   
 433  541  542  1   
 434  542  543  1   
 435  542  544  1   
 436  542  545  1   
 437  546  547  1   
 438  547  548  1   
 439  547  549  1   
 440  547  550  1   
 441  551  552  1   
 442  552  553  1   
 443  552  554  1   
 444  552  555  1   
 445  556  557  1   
 446  557  558  1   
 447  557  559  1   
 448  557  560  1   
 449  561  562  1   
 450  562  563  1   
 451  562  564  1   
 452  562  565  1   
 453  566  567  1   
 454  567  568  1   
 455  567  569  1   
 456  567  570  1   
 457  571  572  1   
 458  572  573  1   
 459  572  574  1   
 460  572  575  1   
 461  576  577  1   
 462  577  578  1   
 463  577  579  1   
 464  577  580  1   
 465  581  582  1   
 466  582  583  1   
 467  582  584  1   
 468  582  585  1   
 469  586  587  1   
 470  587  588  1   
 471  587  589  1   
 472  587  590  1   
 473  591  592  1   
 474  592  593  1   
 475  592  594  1   
 476  592  595  1   
 477  596  597  1   
 478  597  598  1   
 479  597  599  1   
 480  597  600  1   
 481  601  602  1   
 482  602  603  1   
 483  602  604  1   
 484  602  605  1   
 485  606  607  1   
 486  607  608  1   
 487  607  609  1   
 488  607  610  1   
 489  611  612  1   
 490  612  613  1   
 491  612  614  1   
 492  612  615  1   
 493  616  617  1   
 494  617  618  1   
 495  617  619  1   
 496  617  620  1   
 497  621  622  1   
 498  622  623  1   
 499  622  624  1   
 500  622  625  1   
 501  626  627  1   
 502  627  628  1   
 503  627  629  1   
 504  627  630  1   
 505  631  632  1   
 506  632  633  1   
 507  632  634  1   
 508  632  635  1   
 509  636  637  1   
 510  637  638  1   
 511  637  639  1   
 512  637  640  1   
 513  641  642  1   
 514  642  643  1   
 515  642  644  1   
 516  642  645  1   
 517  646  647  1   
 518  647  648  1   
 519  647  649  1   
 520  647  650  1   
 521  651  652  1   
 522  652  653  1   
 523  652  654  1   
 524  652  655  1   
 525  656  657  1   
 526  657  658  1   
 527  657  659  1   
 528  657  660  1   
 529  661  662  1   
 530  662  663  1   
 531  662  664  1   
 532  662  665  1   
 533  666  667  1   
 534  667  668  1   
 535  667  669  1   
 536  667  670  1   
 537  671  672  1   
 538  672  673  1   
 539  672  674  1   
 540  672  675  1   
 541  676  677  1   
 542  677  678  1   
 543  677  679  1   
 544  677  680  1   
 545  681  682  1   
 546  682  683  1   
 547  682  684  1   
 548  682  685  1   
 549  686  687  1   
 550  687  688  1   
 551  687  689  1   
 552  687  690  1   
 553  691  692  1   
 554  692  693  1   
 555  692  694  1   
 556  692  695  1   
 557  696  697  1   
 558  697  698  1   
 559  697  699  1   
 560  697  700  1   
 561  701  702  1   
 562  702  703  1   
 563  702  704  1   
 564  702  705  1   
 565  706  707  1   
 566  707  708  1   
 567  707  709  1   
 568  707  710  1   
 569  711  712  1   
 570  712  713  1   
 571  712  714  1   
 572  712  715  1   
 573  716  717  1   
 574  717  718  1   
 575  717  719  1   
 576  717  720  1   
 577  721  722  1   
 578  722  723  1   
 579  722  724  1   
 580  722  725  1   
 581  726  727  1   
 582  727  728  1   
 583  727  729  1   
 584  727  730  1   
 585  731  732  1   
 586  732  733  1   
 587  732  734  1   
 588  732  735  1   
 589  736  737  1   
 590  737  738  1   
 591  737  739  1   
 592  737  740  1   
 593  741  742  1   
 594  742  743  1   
 595  742  744  1   
 596  742  745  1   
 597  746  747  1   
 598  747  748  1   
 599  747  749  1   
 600  747  750  1   
 601  751  752  1   
 602  752  753  1   
 603  752  754  1   
 604  752  755  1   
 605  756  757  1   
 606  757  758  1   
 607  757  759  1   
 608  757  760  1   
 609  761  762  1   
 610  762  763  1   
 611  762  764  1   
 612  762  765  1   
 613  766  767  1   
 614  767  768  1   
 615  767  769  1   
 616  767  770  1   
 617  771  772  1   
 618  772  773  1   
 619  772  774  1   
 620  772  775  1   
 621  776  777  1   
 622  777  778  1   
 623  777  779  1   
 624  777  780  1   
 625  781  782  1   
 626  782  783  1   
 627  782  784  1   
 628  782  785  1   
 629  786  787  1   
 630  787  788  1   
 631  787  789  1   
 632  787  790  1   
 633  791  792  1   
 634  792  793  1   
 635  792  794  1   
 636  792  795  1   
 637  796  797  1   
 638  797  798  1   
 639  797  799  1   
 640  797  800  1   
 641  801  802  1   
 642  802  803  1   
 643  802  804  1   
 644  802  805  1   
 645  806  807  1   
 646  807  808  1   
 647  807  809  1   
 648  807  810  1   
 649  811  812  1   
 650  812  813  1   
 651  812  814  1   
 652  812  815  1   
 653  816  817  1   
 654  817  818  1   
 655  817  819  1   
 656  817  820  1   
 657  821  822  1   
 658  822  823  1   
 659  822  824  1   
 660  822  825  1   
 661  826  827  1   
 662  827  828  1   
 663  827  829  1   
 664  827  830  1   
 665  831  832  1   
 666  832  833  1   
 667  832  834  1   
 668  832  835  1   
 669  836  837  1   
 670  837  838  1   
 671  837  839  1   
 672  837  840  1   
 673  841  842  1   
 674  842  843  1   
 675  842  844  1   
 676  842  845  1   
 677  846  847  1   
 678  847  848  1   
 679  847  849  1   
 680  847  850  1   
 681  851  852  1   
 682  852  853  1   
 683  852  854  1   
 684  852  855  1   
 685  856  857  1   
 686  857  858  1   
 687  857  859  1   
 688  857  860  1   
 689  861  862  1   
 690  862  863  1   
 691  862  864  1   
 692  862  865  1   
 693  866  867  1   
 694  867  868  1   
 695  867  869  1   
 696  867  870  1   
 697  871  872  1   
 698  872  873  1   
 699  872  874  1   
 700  872  875  1   
 701  876  877  1   
 702  877  878  1   
 703  877  879  1   
 704  877  880  1   
 705  881  882  1   
 706  882  883  1   
 707  882  884  1   
 708  882  885  1   
 709  886  887  1   
 710  887  888  1   
 711  887  889  1   
 712  887  890  1   
 713  891  892  1   
 714  892  893  1   
 715  892  894  1   
 716  892  895  1   
 717  896  897  1   
 718  897  898  1   
 719  897  899  1   
 720  897  900  1   
 721  901  902  1   
 722  902  903  1   
 723  902  904  1   
 724  902  905  1   
 725  906  907  1   
 726  907  908  1   
 727  907  909  1   
 728  907  910  1   
 729  911  912  1   
 730  912  913  1   
 731  912  914  1   
 732  912  915  1   
 733  916  917  1   
 734  917  918  1   
 735  917  919  1   
 736  917  920  1   
 737  921  922  1   
 738  922  923  1   
 739  922  924  1   
 740  922  925  1   
 741  926  927  1   
 742  927  928  1   
 743  927  929  1   
 744  927  930  1   
 745  931  932  1   
 746  932  933  1   
 747  932  934  1   
 748  932  935  1   
 749  936  937  1   
 750  937  938  1   
 751  937  939  1   
 752  937  940  1   
 753  941  942  1   
 754  942  943  1   
 755  942  944  1   
 756  942  945  1   
 757  946  947  1   
 758  947  948  1   
 759  947  949  1   
 760  947  950  1   
 761  951  952  1   
 762  952  953  1   
 763  952  954  1   
 764  952  955  1   
 765  956  957  1   
 766  957  958  1   
 767  957  959  1   
 768  957  960  1   
 769  961  962  1   
 770  962  963  1   
 771  962  964  1   
 772  962  965  1   
 773  966  967  1   
 774  967  968  1   
 775  967  969  1   
 776  967  970  1   
 777  971  972  1   
 778  972  973  1   
 779  972  974  1   
 780  972  975  1   
 781  976  977  1   
 782  977  978  1   
 783  977  979  1   
 784  977  980  1   
 785  981  982  1   
 786  982  983  1   
 787  982  984  1   
 788  982  985  1   
 789  986  987  1   
 790  987  988  1   
 791  987  989  1   
 792  987  990  1   
 793  991  992  1   
 794  992  993  1   
 795  992  994  1   
 796  992  995  1   
 797  996  997  1   
 798  997  998  1   
 799  997  999  1   
 800  997 1000  1   
 801 1001 1002  1   
 802 1002 1003  1   
 803 1002 1004  1   
 804 1002 1005  1   
 805 1006 1007  1   
 806 1007 1008  1   
 807 1007 1009  1   
 808 1007 1010  1   
 809 1011 1012  1   
 810 1012 1013  1   
 811 1012 1014  1   
 812 1012 1015  1   
 813 1016 1017  1   
 814 1017 1018  1   
 815 1017 1019  1   
 816 1017 1020  1   
 817 1021 1022  1   
 818 1022 1023  1   
 819 1022 1024  1   
 820 1022 1025  1   
 821 1026 1027  1   
 822 1027 1028  1   
 823 1027 1029  1   
 824 1027 1030  1   
 825 1031 1032  1   
 826 1032 1033  1   
 827 1032 1034  1   
 828 1032 1035  1   
 829 1036 1037  1   
 830 1037 1038  1   
 831 1037 1039  1   
 832 1037 1040  1   
 833 1041 1042  1   
 834 1042 1043  1   
 835 1042 1044  1   
 836 1042 1045  1   
 837 1046 1047  1   
 838 1047 1048  1   
 839 1047 1049  1   
 840 1047 1050  1   
 841 1051 1052  1   
 842 1052 1053  1   
 843 1052 1054  1   
 844 1052 1055  1   
 845 1056 1057  1   
 846 1057 1058  1   
 847 1057 1059  1   
 848 1057 1060  1   
 849 1061 1062  1   
 850 1062 1063  1   
 851 1062 1064  1   
 852 1062 1065  1   
 853 1066 1067  1   
 854 1067 1068  1   
 855 1067 1069  1   
 856 1067 1070  1   
 857 1071 1072  1   
 858 1072 1073  1   
 859 1072 1074  1   
 860 1072 1075  1   
 861 1076 1077  1   
 862 1077 1078  1   
 863 1077 1079  1   
 864 1077 1080  1   
 865 1081 1082  1   
 866 1082 1083  1   
 867 1082 1084  1   
 868 1082 1085  1   
 869 1086 1087  1   
 870 1087 1088  1   
 871 1087 1089  1   
 872 1087 1090  1   
 873 1091 1092  1   
 874 1092 1093  1   
 875 1092 1094  1   
 876 1092 1095  1   
 877 1096 1097  1   
 878 1097 1098  1   
 879 1097 1099  1   
 880 1097 1100  1   
 881 1101 1102  1   
 882 1102 1103  1   
 883 1102 1104  1   
 884 1102 1105  1   
 885 1106 1107  1   
 886 1107 1108  1   
 887 1107 1109  1   
 888 1107 1110  1   
 889 1111 1112  1   
 890 1112 1113  1   
 891 1112 1114  1   
 892 1112 1115  1   
 893 1116 1117  1   
 894 1117 1118  1   
 895 1117 1119  1   
 896 1117 1120  1   
 897 1121 1122  1   
 898 1122 1123  1   
 899 1122 1124  1   
 900 1122 1125  1   
 901 1126 1127  1   
 902 1127 1128  1   
 903 1127 1129  1   
 904 1127 1130  1   
 905 1131 1132  1   
 906 1132 1133  1   
 907 1132 1134  1   
 908 1132 1135  1   
 909 1136 1137  1   
 910 1137 1138  1   
 911 1137 1139  1   
 912 1137 1140  1   
 913 1141 1142  1   
 914 1142 1143  1   
 915 1142 1144  1   
 916 1142 1145  1   
 917 1146 1147  1   
 918 1147 1148  1   
 919 1147 1149  1   
 920 1147 1150  1   
 921 1151 1152  1   
 922 1152 1153  1   
 923 1152 1154  1   
 924 1152 1155  1   
 925 1156 1157  1   
 926 1157 1158  1   
 927 1157 1159  1   
 928 1157 1160  1   
 929 1161 1162  1   
 930 1162 1163  1   
 931 1162 1164  1   
 932 1162 1165  1   
 933 1166 1167  1   
 934 1167 1168  1   
 935 1167 1169  1   
 936 1167 1170  1   
 937 1171 1172  1   
 938 1172 1173  1   
 939 1172 1174  1   
 940 1172 1175  1   
 941 1176 1177  1   
 942 1177 1178  1   
 943 1177 1179  1   
 944 1177 1180  1   
 945 1181 1182  1   
 946 1182 1183  1   
 947 1182 1184  1   
 948 1182 1185  1   
 949 1186 1187  1   
 950 1187 1188  1   
 951 1187 1189  1   
 952 1187 1190  1   
 953 1191 1192  1   
 954 1192 1193  1   
 955 1192 1194  1   
 956 1192 1195  1   
 957 1196 1197  1   
 958 1197 1198  1   
 959 1197 1199  1   
 960 1197 1200  1   
 961 1201 1202  1   
 962 1202 1203  1   
 963 1202 1204  1   
 964 1202 1205  1   
 965 1206 1207  1   
 966 1207 1208  1   
 967 1207 1209  1   
 968 1207 1210  1   
 969 1211 1212  1   
 970 1212 1213  1   
 971 1212 1214  1   
 972 1212 1215  1   
 973 1216 1217  1   
 974 1217 1218  1   
 975 1217 1219  1   
 976 1217 1220  1   
 977 1221 1222  1   
 978 1222 1223  1   
 979 1222 1224  1   
 980 1222 1225  1   
 981 1226 1227  1   
 982 1227 1228  1   
 983 1227 1229  1   
 984 1227 1230  1   
 985 1231 1232  1   
 986 1232 1233  1   
 987 1232 1234  1   
 988 1232 1235  1   
 989 1236 1237  1   
 990 1237 1238  1   
 991 1237 1239  1   
 992 1237 1240  1   
 993 1241 1242  1   
 994 1242 1243  1   
 995 1242 1244  1   
 996 1242 1245  1   
 997 1246 1247  1   
 998 1247 1248  1   
 999 1247 1249  1   
1000 1247 1250  1   
1001 1251 1252  1   
1002 1252 1253  1   
1003 1252 1254  1   
1004 1252 1255  1   
1005 1256 1257  1   
1006 1257 1258  1   
1007 1257 1259  1   
1008 1257 1260  1   
1009 1261 1262  1   
1010 1262 1263  1   
1011 1262 1264  1   
1012 1262 1265  1   
1013 1266 1267  1   
1014 1267 1268  1   
1015 1267 1269  1   
1016 1267 1270  1   
1017 1271 1272  1   
1018 1272 1273  1   
1019 1272 1274  1   
1020 1272 1275  1   
1021 1276 1277  1   
1022 1277 1278  1   
1023 1277 1279  1   
1024 1277 1280  1   
1025 1281 1282  1   
1026 1282 1283  1   
1027 1282 1284  1   
1028 1282 1285  1   
1029 1286 1287  1   
1030 1287 1288  1   
1031 1287 1289  1   
1032 1287 1290  1   
1033 1291 1292  1   
1034 1292 1293  1   
1035 1292 1294  1   
1036 1292 1295  1   
1037 1296 1297  1   
1038 1297 1298  1   
1039 1297 1299  1   
1040 1297 1300  1   
1041 1301 1302  1   
1042 1302 1303  1   
1043 1302 1304  1   
1044 1302 1305  1   
1045 1306 1307  1   
1046 1307 1308  1   
1047 1307 1309  1   
1048 1307 1310  1   
1049 1311 1312  1   
1050 1312 1313  1   
1051 1312 1314  1   
1052 1312 1315  1   
1053 1316 1317  1   
1054 1317 1318  1   
1055 1317 1319  1   
1056 1317 1320  1   
1057 1321 1322  1   
1058 1322 1323  1   
1059 1322 1324  1   
1060 1322 1325  1   
1061 1326 1327  1   
1062 1327 1328  1   
1063 1327 1329  1   
1064 1327 1330  1   
1065 1331 1332  1   
1066 1332 1333  1   
1067 1332 1334  1   
1068 1332 1335  1   
1069 1336 1337  1   
1070 1337 1338  1   
1071 1337 1339  1   
1072 1337 1340  1   
1073 1341 1342  1   
1074 1342 1343  1   
1075 1342 1344  1   
1076 1342 1345  1   
1077 1346 1347  1   
1078 1347 1348  1   
1079 1347 1349  1   
1080 1347 1350  1   
1081 1351 1352  1   
1082 1352 1353  1   
1083 1352 1354  1   
1084 1352 1355  1   
1085 1356 1357  1   
1086 1357 1358  1   
1087 1357 1359  1   
1088 1357 1360  1   
1089 1361 1362  1   
1090 1362 1363  1   
1091 1362 1364  1   
1092 1362 1365  1   
1093 1366 1367  1   
1094 1367 1368  1   
1095 1367 1369  1   
1096 1367 1370  1   
1097 1371 1372  1   
1098 1372 1373  1   
1099 1372 1374  1   
1100 1372 1375  1   
1101 1376 1377  1   
1102 1377 1378  1   
1103 1377 1379  1   
1104 1377 1380  1   
1105 1381 1382  1   
1106 1382 1383  1   
1107 1382 1384  1   
1108 1382 1385  1   
1109 1386 1387  1   
1110 1387 1388  1   
1111 1387 1389  1   
1112 1387 1390  1   
1113 1391 1392  1   
1114 1392 1393  1   
1115 1392 1394  1   
1116 1392 1395  1   
1117 1396 1397  1   
1118 1397 1398  1   
1119 1397 1399  1   
1120 1397 1400  1   
1121 1401 1402  1   
1122 1402 1403  1   
1123 1402 1404  1   
1124 1402 1405  1   
1125 1406 1407  1   
1126 1407 1408  1   
1127 1407 1409  1   
1128 1407 1410  1   
1129 1411 1412  1   
1130 1412 1413  1   
1131 1412 1414  1   
1132 1412 1415  1   
1133 1416 1417  1   
1134 1417 1418  1   
1135 1417 1419  1   
1136 1417 1420  1   
1137 1421 1422  1   
1138 1422 1423  1   
1139 1422 1424  1   
1140 1422 1425  1   
1141 1426 1427  1   
1142 1427 1428  1   
1143 1427 1429  1   
1144 1427 1430  1   
1145 1431 1432  1   
1146 1432 1433  1   
1147 1432 1434  1   
1148 1432 1435  1   
1149 1436 1437  1   
1150 1437 1438  1   
1151 1437 1439  1   
1152 1437 1440  1   
1153 1441 1442  1   
1154 1442 1443  1   
1155 1442 1444  1   
1156 1442 1445  1   
1157 1446 1447  1   
1158 1447 1448  1   
1159 1447 1449  1   
1160 1447 1450  1   
1161 1451 1452  1   
1162 1452 1453  1   
1163 1452 1454  1   
1164 1452 1455  1   
1165 1456 1457  1   
1166 1457 1458  1   
1167 1457 1459  1   
1168 1457 1460  1   
1169 1461 1462  1   
1170 1462 1463  1   
1171 1462 1464  1   
1172 1462 1465  1   
1173 1466 1467  1   
1174 1467 1468  1   
1175 1467 1469  1   
1176 1467 1470  1   
1177 1471 1472  1   
1178 1472 1473  1   
1179 1472 1474  1   
1180 1472 1475  1   
1181 1476 1477  1   
1182 1477 1478  1   
1183 1477 1479  1   
1184 1477 1480  1   
1185 1481 1482  1   
1186 1482 1483  1   
1187 1482 1484  1   
1188 1482 1485  1   
1189 1486 1487  1   
1190 1487 1488  1   
1191 1487 1489  1   
1192 1487 1490  1   
1193 1491 1492  1   
1194 1492 1493  1   
1195 1492 1494  1   
1196 1492 1495  1   
1197 1496 1497  1   
1198 1497 1498  1   
1199 1497 1499  1   
1200 1497 1500  1   
1201 1501 1502  1   
1202 1502 1503  1   
1203 1502 1504  1   
1204 1502 1505  1   
1205 1506 1507  1   
1206 1507 1508  1   
1207 1507 1509  1   
1208 1507 1510  1   
1209 1511 1512  1   
1210 1512 1513  1   
1211 1512 1514  1   
1212 1512 1515  1   
1213 1516 1517  1   
1214 1517 1518  1   
1215 1517 1519  1   
1216 1517 1520  1   
1217 1521 1522  1   
1218 1522 1523  1   
1219 1522 1524  1   
1220 1522 1525  1   
1221 1526 1527  1   
1222 1527 1528  1   
1223 1527 1529  1   
1224 1527 1530  1   
1225 1531 1532  1   
1226 1532 1533  1   
1227 1532 1534  1   
1228 1532 1535  1   
1229 1536 1537  1   
1230 1537 1538  1   
1231 1537 1539  1   
1232 1537 1540  1   
1233 1541 1542  1   
1234 1542 1543  1   
1235 1542 1544  1   
1236 1542 1545  1   
1237 1546 1547  1   
1238 1547 1548  1   
1239 1547 1549  1   
1240 1547 1550  1   
1241 1551 1552  1   
1242 1552 1553  1   
1243 1552 1554  1   
1244 1552 1555  1   
1245 1556 1557  1   
1246 1557 1558  1   
1247 1557 1559  1   
1248 1557 1560  1   
1249 1561 1562  1   
1250 1562 1563  1   
1251 1562 1564  1   
1252 1562 1565  1   
1253 1566 1567  1   
1254 1567 1568  1   
1255 1567 1569  1   
1256 1567 1570  1   
1257 1571 1572  1   
1258 1572 1573  1   
1259 1572 1574  1   
1260 1572 1575  1   
1261 1576 1577  1   
1262 1577 1578  1   
1263 1577 1579  1   
1264 1577 1580  1   
1265 1581 1582  1   
1266 1582 1583  1   
1267 1582 1584  1   
1268 1582 1585  1   
1269 1586 1587  1   
1270 1587 1588  1   
1271 1587 1589  1   
1272 1587 1590  1   
1273 1591 1592  1   
1274 1592 1593  1   
1275 1592 1594  1   
1276 1592 1595  1   
1277 1596 1597  1   
1278 1597 1598  1   
1279 1597 1599  1   
1280 1597 1600  1   
1281 1601 1602  1   
1282 1602 1603  1   
1283 1602 1604  1   
1284 1602 1605  1   
1285 1606 1607  1   
1286 1607 1608  1   
1287 1607 1609  1   
1288 1607 1610  1   
1289 1611 1612  1   
1290 1612 1613  1   
1291 1612 1614  1   
1292 1612 1615  1   
1293 1616 1617  1   
1294 1617 1618  1   
1295 1617 1619  1   
1296 1617 1620  1   
1297 1621 1622  1   
1298 1622 1623  1   
1299 1622 1624  1   
1300 1622 1625  1   
1301 1626 1627  1   
1302 1627 1628  1   
1303 1627 1629  1   
1304 1627 1630  1   
1305 1631 1632  1   
1306 1632 1633  1   
1307 1632 1634  1   
1308 1632 1635  1   
1309 1636 1637  1   
1310 1637 1638  1   
1311 1637 1639  1   
1312 1637 1640  1   
1313 1641 1642  1   
1314 1642 1643  1   
1315 1642 1644  1   
1316 1642 1645  1   
1317 1646 1647  1   
1318 1647 1648  1   
1319 1647 1649  1   
1320 1647 1650  1   
1321 1651 1652  1   
1322 1652 1653  1   
1323 1652 1654  1   
1324 1652 1655  1   
1325 1656 1657  1   
1326 1657 1658  1   
1327 1657 1659  1   
1328 1657 1660  1   
1329 1661 1662  1   
1330 1662 1663  1   
1331 1662 1664  1   
1332 1662 1665  1   
1333 1666 1667  1   
1334 1667 1668  1   
1335 1667 1669  1   
1336 1667 1670  1   
1337 1671 1672  1   
1338 1672 1673  1   
1339 1672 1674  1   
1340 1672 1675  1   
1341 1676 1677  1   
1342 1677 1678  1   
1343 1677 1679  1   
1344 1677 1680  1   
1345 1681 1682  1   
1346 1682 1683  1   
1347 1682 1684  1   
1348 1682 1685  1   
1349 1686 1687  1   
1350 1687 1688  1   
1351 1687 1689  1   
1352 1687 1690  1   
1353 1691 1692  1   
1354 1692 1693  1   
1355 1692 1694  1   
1356 1692 1695  1   
1357 1696 1697  1   
1358 1697 1698  1   
1359 1697 1699  1   
1360 1697 1700  1   
1361 1701 1702  1   
1362 1702 1703  1   
1363 1702 1704  1   
1364 1702 1705  1   
1365 1706 1707  1   
1366 1707 1708  1   
1367 1707 1709  1   
1368 1707 1710  1   
1369 1711 1712  1   
1370 1712 1713  1   
1371 1712 1714  1   
1372 1712 1715  1   
1373 1716 1717  1   
1374 1717 1718  1   
1375 1717 1719  1   
1376 1717 1720  1   
1377 1721 1722  1   
1378 1722 1723  1   
1379 1722 1724  1   
1380 1722 1725  1   
1381 1726 1727  1   
1382 1727 1728  1   
1383 1727 1729  1   
1384 1727 1730  1   
1385 1731 1732  1   
1386 1732 1733  1   
1387 1732 1734  1   
1388 1732 1735  1   
1389 1736 1737  1   
1390 1737 1738  1   
1391 1737 1739  1   
1392 1737 1740  1   
1393 1741 1742  1   
1394 1742 1743  1   
1395 1742 1744  1   
1396 1742 1745  1   
1397 1746 1747  1   
1398 1747 1748  1   
1399 1747 1749  1   
1400 1747 1750  1   
1401 1751 1752  1   
1402 1752 1753  1   
1403 1752 1754  1   
1404 1752 1755  1   
1405 1756 1757  1   
1406 1757 1758  1   
1407 1757 1759  1   
1408 1757 1760  1   
1409 1761 1762  1   
1410 1762 1763  1   
1411 1762 1764  1   
1412 1762 1765  1   
1413 1766 1767  1   
1414 1767 1768  1   
1415 1767 1769  1   
1416 1767 1770  1   
1417 1771 1772  1   
1418 1772 1773  1   
1419 1772 1774  1   
1420 1772 1775  1   
1421 1776 1777  1   
1422 1777 1778  1   
1423 1777 1779  1   
1424 1777 1780  1   
1425 1781 1782  1   
1426 1782 1783  1   
1427 1782 1784  1   
1428 1782 1785  1   
1429 1786 1787  1   
1430 1787 1788  1   
1431 1787 1789  1   
1432 1787 1790  1   
1433 1791 1792  1   
1434 1792 1793  1   
1435 1792 1794  1   
1436 1792 1795  1   
1437 1796 1797  1   
1438 1797 1798  1   
1439 1797 1799  1   
1440 1797 1800  1   
1441 1801 1802  1   
1442 1802 1803  1   
1443 1802 1804  1   
1444 1802 1805  1   
1445 1806 1807  1   
1446 1807 1808  1   
1447 1807 1809  1   
1448 1807 1810  1   
1449 1811 1812  1   
1450 1812 1813  1   
1451 1812 1814  1   
1452 1812 1815  1   
1453 1816 1817  1   
1454 1817 1818  1   
1455 1817 1819  1   
1456 1817 1820  1   
1457 1821 1822  1   
1458 1822 1823  1   
1459 1822 1824  1   
1460 1822 1825  1   
1461 1826 1827  1   
1462 1827 1828  1   
1463 1827 1829  1   
1464 1827 1830  1   
1465 1831 1832  1   
1466 1832 1833  1   
1467 1832 1834  1   
1468 1832 1835  1   
1469 1836 1837  1   
1470 1837 1838  1   
1471 1837 1839  1   
1472 1837 1840  1   
1473 1841 1842  1   
1474 1842 1843  1   
1475 1842 1844  1   
1476 1842 1845  1   
1477 1846 1847  1   
1478 1847 1848  1   
1479 1847 1849  1   
1480 1847 1850  1   
1481 1851 1852  1   
1482 1852 1853  1   
1483 1852 1854  1   
1484 1852 1855  1   
1485 1856 1857  1   
1486 1857 1858  1   
1487 1857 1859  1   
1488 1857 1860  1   
1489 1861 1862  1   
1490 1862 1863  1   
1491 1862 1864  1   
1492 1862 1865  1   
1493 1866 1867  1   
1494 1867 1868  1   
1495 1867 1869  1   
1496 1867 1870  1   
1497 1871 1872  1   
1498 1872 1873  1   
1499 1872 1874  1   
1500 1872 1875  1   
1501 1876 1877  1   
1502 1877 1878  1   
1503 1877 1879  1   
1504 1877 1880  1   
1505 1881 1882  1   
1506 1882 1883  1   
1507 1882 1884  1   
1508 1882 1885  1   
1509 1886 1887  1   
1510 1887 1888  1   
1511 1887 1889  1   
1512 1887 1890  1   
1513 1891 1892  1   
1514 1892 1893  1   
1515 1892 1894  1   
1516 1892 1895  1   
1517 1896 1897  1   
1518 1897 1898  1   
1519 1897 1899  1   
1520 1897 1900  1   
1521 1901 1902  1   
1522 1902 1903  1   
1523 1902 1904  1   
1524 1902 1905  1   
1525 1906 1907  1   
1526 1907 1908  1   
1527 1907 1909  1   
1528 1907 1910  1   
1529 1911 1912  1   
1530 1912 1913  1   
1531 1912 1914  1   
1532 1912 1915  1   
1533 1916 1917  1   
1534 1917 1918  1   
1535 1917 1919  1   
1536 1917 1920  1   
1537 1921 1922  1   
1538 1922 1923  1   
1539 1922 1924  1   
1540 1922 1925  1   
1541 1926 1927  1   
1542 1927 1928  1   
1543 1927 1929  1   
1544 1927 1930  1   
1545 1931 1932  1   
1546 1932 1933  1   
1547 1932 1934  1   
1548 1932 1935  1   
1549 1936 1937  1   
1550 1937 1938  1   
1551 1937 1939  1   
1552 1937 1940  1   
1553 1941 1942  1   
1554 1942 1943  1   
1555 1942 1944  1   
1556 1942 1945  1   
1557 1946 1947  1   
1558 1947 1948  1   
1559 1947 1949  1   
1560 1947 1950  1   
1561 1951 1952  1   
1562 1952 1953  1   
1563 1952 1954  1   
1564 1952 1955  1   
1565 1956 1957  1   
1566 1957 1958  1   
1567 1957 1959  1   
1568 1957 1960  1   
1569 1961 1962  1   
1570 1962 1963  1   
1571 1962 1964  1   
1572 1962 1965  1   
1573 1966 1967  1   
1574 1967 1968  1   
1575 1967 1969  1   
1576 1967 1970  1   
1577 1971 1972  1   
1578 1972 1973  1   
1579 1972 1974  1   
1580 1972 1975  1   
1581 1976 1977  1   
1582 1977 1978  1   
1583 1977 1979  1   
1584 1977 1980  1   
1585 1981 1982  1   
1586 1982 1983  1   
1587 1982 1984  1   
1588 1982 1985  1   
1589 1986 1987  1   
1590 1987 1988  1   
1591 1987 1989  1   
1592 1987 1990  1   
1593 1991 1992  1   
1594 1992 1993  1   
1595 1992 1994  1   
1596 1992 1995  1   
1597 1996 1997  1   
1598 1997 1998  1   
1599 1997 1999  1   
1600 1997 2000  1   
1601 2001 2002  1   
1602 2002 2003  1   
1603 2002 2004  1   
1604 2002 2005  1   
1605 2006 2007  1   
1606 2007 2008  1   
1607 2007 2009  1   
1608 2007 2010  1   
1609 2011 2012  1   
1610 2012 2013  1   
1611 2012 2014  1   
1612 2012 2015  1   
1613 2016 2017  1   
1614 2017 2018  1   
1615 2017 2019  1   
1616 2017 2020  1   
1617 2021 2022  1   
1618 2022 2023  1   
1619 2022 2024  1   
1620 2022 2025  1   
1621 2026 2027  1   
1622 2027 2028  1   
1623 2027 2029  1   
1624 2027 2030  1   
1625 2031 2032  1   
1626 2032 2033  1   
1627 2032 2034  1   
1628 2032 2035  1   
1629 2036 2037  1   
1630 2037 2038  1   
1631 2037 2039  1   
1632 2037 2040  1   
1633 2041 2042  1   
1634 2042 2043  1   
1635 2042 2044  1   
1636 2042 2045  1   
1637 2046 2047  1   
1638 2047 2048  1   
1639 2047 2049  1   
1640 2047 2050  1   
1641 2051 2052  1   
1642 2052 2053  1   
1643 2052 2054  1   
1644 2052 2055  1   
1645 2056 2057  1   
1646 2057 2058  1   
1647 2057 2059  1   
1648 2057 2060  1   
1649 2061 2062  1   
1650 2062 2063  1   
1651 2062 2064  1   
1652 2062 2065  1   
1653 2066 2067  1   
1654 2067 2068  1   
1655 2067 2069  1   
1656 2067 2070  1   
1657 2071 2072  1   
1658 2072 2073  1   
1659 2072 2074  1   
1660 2072 2075  1   
1661 2076 2077  1   
1662 2077 2078  1   
1663 2077 2079  1   
1664 2077 2080  1   
1665 2081 2082  1   
1666 2082 2083  1   
1667 2082 2084  1   
1668 2082 2085  1   
1669 2086 2087  1   
1670 2087 2088  1   
1671 2087 2089  1   
1672 2087 2090  1   
1673 2091 2092  1   
1674 2092 2093  1   
1675 2092 2094  1   
1676 2092 2095  1   
1677 2096 2097  1   
1678 2097 2098  1   
1679 2097 2099  1   
1680 2097 2100  1   
1681 2101 2102  1   
1682 2102 2103  1   
1683 2102 2104  1   
1684 2102 2105  1   
1685 2106 2107  1   
1686 2107 2108  1   
1687 2107 2109  1   
1688 2107 2110  1   
1689 2111 2112  1   
1690 2112 2113  1   
1691 2112 2114  1   
1692 2112 2115  1   
1693 2116 2117  1   
1694 2117 2118  1   
1695 2117 2119  1   
1696 2117 2120  1   
1697 2121 2122  1   
1698 2122 2123  1   
1699 2122 2124  1   
1700 2122 2125  1   
1701 2126 2127  1   
1702 2127 2128  1   
1703 2127 2129  1   
1704 2127 2130  1   
1705 2131 2132  1   
1706 2132 2133  1   
1707 2132 2134  1   
1708 2132 2135  1   
1709 2136 2137  1   
1710 2137 2138  1   
1711 2137 2139  1   
1712 2137 2140  1   
1713 2141 2142  1   
1714 2142 2143  1   
1715 2142 2144  1   
1716 2142 2145  1   
1717 2146 2147  1   
1718 2147 2148  1   
1719 2147 2149  1   
1720 2147 2150  1   
1721 2151 2152  1   
1722 2152 2153  1   
1723 2152 2154  1   
1724 2152 2155  1   
1725 2156 2157  1   
1726 2157 2158  1   
1727 2157 2159  1   
1728 2157 2160  1   
1729 2161 2162  1   
1730 2162 2163  1   
1731 2162 2164  1   
1732 2162 2165  1   
1733 2166 2167  1   
1734 2167 2168  1   
1735 2167 2169  1   
1736 2167 2170  1   
1737 2171 2172  1   
1738 2172 2173  1   
1739 2172 2174  1   
1740 2172 2175  1   
1741 2176 2177  1   
1742 2177 2178  1   
1743 2177 2179  1   
1744 2177 2180  1   
1745 2181 2182  1   
1746 2182 2183  1   
1747 2182 2184  1   
1748 2182 2185  1   
1749 2186 2187  1   
1750 2187 2188  1   
1751 2187 2189  1   
1752 2187 2190  1   
1753 2191 2192  1   
1754 2192 2193  1   
1755 2192 2194  1   
1756 2192 2195  1   
1757 2196 2197  1   
1758 2197 2198  1   
1759 2197 2199  1   
1760 2197 2200  1   
1761 2201 2202  1   
1762 2202 2203  1   
1763 2202 2204  1   
1764 2202 2205  1   
1765 2206 2207  1   
1766 2207 2208  1   
1767 2207 2209  1   
1768 2207 2210  1   
1769 2211 2212  1   
1770 2212 2213  1   
1771 2212 2214  1   
1772 2212 2215  1   
1773 2216 2217  1   
1774 2217 2218  1   
1775 2217 2219  1   
1776 2217 2220  1   
1777 2221 2222  1   
1778 2222 2223  1   
1779 2222 2224  1   
1780 2222 2225  1   
1781 2226 2227  1   
1782 2227 2228  1   
1783 2227 2229  1   
1784 2227 2230  1   
1785 2231 2232  1   
1786 2232 2233  1   
1787 2232 2234  1   
1788 2232 2235  1   
1789 2236 2237  1   
1790 2237 2238  1   
1791 2237 2239  1   
1792 2237 2240  1   
1793 2241 2242  1   
1794 2242 2243  1   
1795 2242 2244  1   
1796 2242 2245  1   
1797 2246 2247  1   
1798 2247 2248  1   
1799 2247 2249  1   
1800 2247 2250  1   
1801 2251 2252  1   
1802 2252 2253  1   
1803 2252 2254  1   
1804 2252 2255  1   
1805 2256 2257  1   
1806 2257 2258  1   
1807 2257 2259  1   
1808 2257 2260  1   
1809 2261 2262  1   
1810 2262 2263  1   
1811 2262 2264  1   
1812 2262 2265  1   
1813 2266 2267  1   
1814 2267 2268  1   
1815 2267 2269  1   
1816 2267 2270  1   
1817 2271 2272  1   
1818 2272 2273  1   
1819 2272 2274  1   
1820 2272 2275  1   
1821 2276 2277  1   
1822 2277 2278  1   
1823 2277 2279  1   
1824 2277 2280  1   
1825 2281 2282  1   
1826 2282 2283  1   
1827 2282 2284  1   
1828 2282 2285  1   
1829 2286 2287  1   
1830 2287 2288  1   
1831 2287 2289  1   
1832 2287 2290  1   
1833 2291 2292  1   
1834 2292 2293  1   
1835 2292 2294  1   
1836 2292 2295  1   
1837 2296 2297  1   
1838 2297 2298  1   
1839 2297 2299  1   
1840 2297 2300  1   
1841 2301 2302  1   
1842 2302 2303  1   
1843 2302 2304  1   
1844 2302 2305  1   
1845 2306 2307  1   
1846 2307 2308  1   
1847 2307 2309  1   
1848 2307 2310  1   
1849 2311 2312  1   
1850 2312 2313  1   
1851 2312 2314  1   
1852 2312 2315  1   
1853 2316 2317  1   
1854 2317 2318  1   
1855 2317 2319  1   
1856 2317 2320  1   
1857 2321 2322  1   
1858 2322 2323  1   
1859 2322 2324  1   
1860 2322 2325  1   
1861 2326 2327  1   
1862 2327 2328  1   
1863 2327 2329  1   
1864 2327 2330  1   
1865 2331 2332  1   
1866 2332 2333  1   
1867 2332 2334  1   
1868 2332 2335  1   
1869 2336 2337  1   
1870 2337 2338  1   
1871 2337 2339  1   
1872 2337 2340  1   
1873 2341 2342  1   
1874 2342 2343  1   
1875 2342 2344  1   
1876 2342 2345  1   
1877 2346 2347  1   
1878 2347 2348  1   
1879 2347 2349  1   
1880 2347 2350  1   
1881 2351 2352  1   
1882 2352 2353  1   
1883 2352 2354  1   
1884 2352 2355  1   
1885 2356 2357  1   
1886 2357 2358  1   
1887 2357 2359  1   
1888 2357 2360  1   
1889 2361 2362  1   
1890 2362 2363  1   
1891 2362 2364  1   
1892 2362 2365  1   
1893 2366 2367  1   
1894 2367 2368  1   
1895 2367 2369  1   
1896 2367 2370  1   
1897 2371 2372  1   
1898 2372 2373  1   
1899 2372 2374  1   
1900 2372 2375  1   
1901 2376 2377  1   
1902 2377 2378  1   
1903 2377 2379  1   
1904 2377 2380  1   
1905 2381 2382  1   
1906 2382 2383  1   
1907 2382 2384  1   
1908 2382 2385  1   
1909 2386 2387  1   
1910 2387 2388  1   
1911 2387 2389  1   
1912 2387 2390  1   
1913 2391 2392  1   
1914 2392 2393  1   
1915 2392 2394  1   
1916 2392 2395  1   
1917 2396 2397  1   
1918 2397 2398  1   
1919 2397 2399  1   
1920 2397 2400  1   
1921 2401 2402  1   
1922 2402 2403  1   
1923 2402 2404  1   
1924 2402 2405  1   
1925 2406 2407  1   
1926 2407 2408  1   
1927 2407 2409  1   
1928 2407 2410  1   
1929 2411 2412  1   
1930 2412 2413  1   
1931 2412 2414  1   
1932 2412 2415  1   
1933 2416 2417  1   
1934 2417 2418  1   
1935 2417 2419  1   
1936 2417 2420  1   
1937 2421 2422  1   
1938 2422 2423  1   
1939 2422 2424  1   
1940 2422 2425  1   
1941 2426 2427  1   
1942 2427 2428  1   
1943 2427 2429  1   
1944 2427 2430  1   
1945 2431 2432  1   
1946 2432 2433  1   
1947 2432 2434  1   
1948 2432 2435  1   
1949 2436 2437  1   
1950 2437 2438  1   
1951 2437 2439  1   
1952 2437 2440  1   
1953 2441 2442  1   
1954 2442 2443  1   
1955 2442 2444  1   
1956 2442 2445  1   
1957 2446 2447  1   
1958 2447 2448  1   
1959 2447 2449  1   
1960 2447 2450  1   
1961 2451 2452  1   
1962 2452 2453  1   
1963 2452 2454  1   
1964 2452 2455  1   
1965 2456 2457  1   
1966 2457 2458  1   
1967 2457 2459  1   
1968 2457 2460  1   
@<TRIPOS>SUBSTRUCTURE
  1 CCL4    2 GROUP 4 **** **** 0
  2 CCL4    7 GROUP 4 **** **** 0
  3 CCL4   12 GROUP 4 **** **** 0
  4 CCL4   17 GROUP 4 **** **** 0
  5 CCL4   22 GROUP 4 **** **** 0
  6 CCL4   27 GROUP 4 **** **** 0
  7 CCL4   32 GROUP 4 **** **** 0
  8 CCL4   37 GROUP 4 **** **** 0
  9 CCL4   42 GROUP 4 **** **** 0
 10 CCL4   47 GROUP 4 **** **** 0
 11 CCL4   52 GROUP 4 **** **** 0
 12 CCL4   57 GROUP 4 **** **** 0
 13 CCL4   62 GROUP 4 **** **** 0
 14 CCL4   67 GROUP 4 **** **** 0
 15 CCL4   72 GROUP 4 **** **** 0
 16 CCL4   77 GROUP 4 **** **** 0
 17 CCL4   82 GROUP 4 **** **** 0
 18 CCL4   87 GROUP 4 **** **** 0
 19 CCL4   92 GROUP 4 **** **** 0
 20 CCL4   97 GROUP 4 **** **** 0
 21 CCL4  102 GROUP 4 **** **** 0
 22 CCL4  107 GROUP 4 **** **** 0
 23 CCL4  112 GROUP 4 **** **** 0
 24 CCL4  117 GROUP 4 **** **** 0
 25 CCL4  122 GROUP 4 **** **** 0
 26 CCL4  127 GROUP 4 **** **** 0
 27 CCL4  132 GROUP 4 **** **** 0
 28 CCL4  137 GROUP 4 **** **** 0
 29 CCL4  142 GROUP 4 **** **** 0
 30 CCL4  147 GROUP 4 **** **** 0
 31 CCL4  152 GROUP 4 **** **** 0
 32 CCL4  157 GROUP 4 **** **** 0
 33 CCL4  162 GROUP 4 **** **** 0
 34 CCL4  167 GROUP 4 **** **** 0
 35 CCL4  172 GROUP 4 **** **** 0
 36 CCL4  177 GROUP 4 **** **** 0
 37 CCL4  182 GROUP 4 **** **** 0
 38 CCL4  187 GROUP 4 **** **** 0
 39 CCL4  192 GROUP 4 **** **** 0
 40 CCL4  197 GROUP 4 **** **** 0
 41 CCL4  202 GROUP 4 **** **** 0
 42 CCL4  207 GROUP 4 **** **** 0
 43 CCL4  212 GROUP 4 **** **** 0
 44 CCL4  217 GROUP 4 **** **** 0
 45 CCL4  222 GROUP 4 **** **** 0
 46 CCL4  227 GROUP 4 **** **** 0
 47 CCL4  232 GROUP 4 **** **** 0
 48 CCL4  237 GROUP 4 **** **** 0
 49 CCL4  242 GROUP 4 **** **** 0
 50 CCL4  247 GROUP 4 **** **** 0
 51 CCL4  252 GROUP 4 **** **** 0
 52 CCL4  257 GROUP 4 **** **** 0
 53 CCL4  262 GROUP 4 **** **** 0
 54 CCL4  267 GROUP 4 **** **** 0
 55 CCL4  272 GROUP 4 **** **** 0
 56 CCL4  277 GROUP 4 **** **** 0
 57 CCL4  282 GROUP 4 **** **** 0
 58 CCL4  287 GROUP 4 **** **** 0
 59 CCL4  292 GROUP 4 **** **** 0
 60 CCL4  297 GROUP 4 **** **** 0
 61 CCL4  302 GROUP 4 **** **** 0
 62 CCL4  307 GROUP 4 **** **** 0
 63 CCL4  312 GROUP 4 **** **** 0
 64 CCL4  317 GROUP 4 **** **** 0
 65 CCL4  322 GROUP 4 **** **** 0
 66 CCL4  327 GROUP 4 **** **** 0
 67 CCL4  332 GROUP 4 **** **** 0
 68 CCL4  337 GROUP 4 **** **** 0
 69 CCL4  342 GROUP 4 **** **** 0
 70 CCL4  347 GROUP 4 **** **** 0
 71 CCL4  352 GROUP 4 **** **** 0
 72 CCL4  357 GROUP 4 **** **** 0
 73 CCL4  362 GROUP 4 **** **** 0
 74 CCL4  367 GROUP 4 **** **** 0
 75 CCL4  372 GROUP 4 **** **** 0
 76 CCL4  377 GROUP 4 **** **** 0
 77 CCL4  382 GROUP 4 **** **** 0
 78 CCL4  387 GROUP 4 **** **** 0
 79 CCL4  392 GROUP 4 **** **** 0
 80 CCL4  397 GROUP 4 **** **** 0
 81 CCL4  402 GROUP 4 **** **** 0
 82 CCL4  407 GROUP 4 **** **** 0
 83 CCL4  412 GROUP 4 **** **** 0
 84 CCL4  417 GROUP 4 **** **** 0
 85 CCL4  422 GROUP 4 **** **** 0
 86 CCL4  427 GROUP 4 **** **** 0
 87 CCL4  432 GROUP 4 **** **** 0
 88 CCL4  437 GROUP 4 **** **** 0
 89 CCL4  442 GROUP 4 **** **** 0
 90 CCL4  447 GROUP 4 **** **** 0
 91 CCL4  452 GROUP 4 **** **** 0
 92 CCL4  457 GROUP 4 **** **** 0
 93 CCL4  462 GROUP 4 **** **** 0
 94 CCL4  467 GROUP 4 **** **** 0
 95 CCL4  472 GROUP 4 **** **** 0
 96 CCL4  477 GROUP 4 **** **** 0
 97 CCL4  482 GROUP 4 **** **** 0
 98 CCL4  487 GROUP 4 **** **** 0
 99 CCL4  492 GROUP 4 **** **** 0
100 CCL4  497 GROUP 4 **** **** 0
101 CCL4  502 GROUP 4 **** **** 0
102 CCL4  507 GROUP 4 **** **** 0
103 CCL4  512 GROUP 4 **** **** 0
104 CCL4  517 GROUP 4 **** **** 0
105 CCL4  522 GROUP 4 **** **** 0
106 CCL4  527 GROUP 4 **** **** 0
107 CCL4  532 GROUP 4 **** **** 0
108 CCL4  537 GROUP 4 **** **** 0
109 CCL4  542 GROUP 4 **** **** 0
110 CCL4  547 GROUP 4 **** **** 0
111 CCL4  552 GROUP 4 **** **** 0
112 CCL4  557 GROUP 4 **** **** 0
113 CCL4  562 GROUP 4 **** **** 0
114 CCL4  567 GROUP 4 **** **** 0
115 CCL4  572 GROUP 4 **** **** 0
116 CCL4  577 GROUP 4 **** **** 0
117 CCL4  582 GROUP 4 **** **** 0
118 CCL4  587 GROUP 4 **** **** 0
119 CCL4  592 GROUP 4 **** **** 0
120 CCL4  597 GROUP 4 **** **** 0
121 CCL4  602 GROUP 4 **** **** 0
122 CCL4  607 GROUP 4 **** **** 0
123 CCL4  612 GROUP 4 **** **** 0
124 CCL4  617 GROUP 4 **** **** 0
125 CCL4  622 GROUP 4 **** **** 0
126 CCL4  627 GROUP 4 **** **** 0
127 CCL4  632 GROUP 4 **** **** 0
128 CCL4  637 GROUP 4 **** **** 0
129 CCL4  642 GROUP 4 **** **** 0
130 CCL4  647 GROUP 4 **** **** 0
131 CCL4  652 GROUP 4 **** **** 0
132 CCL4  657 GROUP 4 **** **** 0
133 CCL4  662 GROUP 4 **** **** 0
134 CCL4  667 GROUP 4 **** **** 0
135 CCL4  672 GROUP 4 **** **** 0
136 CCL4  677 GROUP 4 **** **** 0
137 CCL4  682 GROUP 4 **** **** 0
138 CCL4  687 GROUP 4 **** **** 0
139 CCL4  692 GROUP 4 **** **** 0
140 CCL4  697 GROUP 4 **** **** 0
141 CCL4  702 GROUP 4 **** **** 0
142 CCL4  707 GROUP 4 **** **** 0
143 CCL4  712 GROUP 4 **** **** 0
144 CCL4  717 GROUP 4 **** **** 0
145 CCL4  722 GROUP 4 **** **** 0
146 CCL4  727 GROUP 4 **** **** 0
147 CCL4  732 GROUP 4 **** **** 0
148 CCL4  737 GROUP 4 **** **** 0
149 CCL4  742 GROUP 4 **** **** 0
150 CCL4  747 GROUP 4 **** **** 0
151 CCL4  752 GROUP 4 **** **** 0
152 CCL4  757 GROUP 4 **** **** 0
153 CCL4  762 GROUP 4 **** **** 0
154 CCL4  767 GROUP 4 **** **** 0
155 CCL4  772 GROUP 4 **** **** 0
156 CCL4  777 GROUP 4 **** **** 0
157 CCL4  782 GROUP 4 **** **** 0
158 CCL4  787 GROUP 4 **** **** 0
159 CCL4  792 GROUP 4 **** **** 0
160 CCL4  797 GROUP 4 **** **** 0
161 CCL4  802 GROUP 4 **** **** 0
162 CCL4  807 GROUP 4 **** **** 0
163 CCL4  812 GROUP 4 **** **** 0
164 CCL4  817 GROUP 4 **** **** 0
165 CCL4  822 GROUP 4 **** **** 0
166 CCL4  827 GROUP 4 **** **** 0
167 CCL4  832 GROUP 4 **** **** 0
168 CCL4  837 GROUP 4 **** **** 0
169 CCL4  842 GROUP 4 **** **** 0
170 CCL4  847 GROUP 4 **** **** 0
171 CCL4  852 GROUP 4 **** **** 0
172 CCL4  857 GROUP 4 **** **** 0
173 CCL4  862 GROUP 4 **** **** 0
174 CCL4  867 GROUP 4 **** **** 0
175 CCL4  872 GROUP 4 **** **** 0
176 CCL4  877 GROUP 4 **** **** 0
177 CCL4  882 GROUP 4 **** **** 0
178 CCL4  887 GROUP 4 **** **** 0
179 CCL4  892 GROUP 4 **** **** 0
180 CCL4  897 GROUP 4 **** **** 0
181 CCL4  902 GROUP 4 **** **** 0
182 CCL4  907 GROUP 4 **** **** 0
183 CCL4  912 GROUP 4 **** **** 0
184 CCL4  917 GROUP 4 **** **** 0
185 CCL4  922 GROUP 4 **** **** 0
186 CCL4  927 GROUP 4 **** **** 0
187 CCL4  932 GROUP 4 **** **** 0
188 CCL4  937 GROUP 4 **** **** 0
189 CCL4  942 GROUP 4 **** **** 0
190 CCL4  947 GROUP 4 **** **** 0
191 CCL4  952 GROUP 4 **** **** 0
192 CCL4  957 GROUP 4 **** **** 0
193 CCL4  962 GROUP 4 **** **** 0
194 CCL4  967 GROUP 4 **** **** 0
195 CCL4  972 GROUP 4 **** **** 0
196 CCL4  977 GROUP 4 **** **** 0
197 CCL4  982 GROUP 4 **** **** 0
198 CCL4  987 GROUP 4 **** **** 0
199 CCL4  992 GROUP 4 **** **** 0
200 CCL4  997 GROUP 4 **** **** 0
201 CCL4 1002 GROUP 4 **** **** 0
202 CCL4 1007 GROUP 4 **** **** 0
203 CCL4 1012 GROUP 4 **** **** 0
204 CCL4 1017 GROUP 4 **** **** 0
205 CCL4 1022 GROUP 4 **** **** 0
206 CCL4 1027 GROUP 4 **** **** 0
207 CCL4 1032 GROUP 4 **** **** 0
208 CCL4 1037 GROUP 4 **** **** 0
209 CCL4 1042 GROUP 4 **** **** 0
210 CCL4 1047 GROUP 4 **** **** 0
211 CCL4 1052 GROUP 4 **** **** 0
212 CCL4 1057 GROUP 4 **** **** 0
213 CCL4 1062 GROUP 4 **** **** 0
214 CCL4 1067 GROUP 4 **** **** 0
215 CCL4 1072 GROUP 4 **** **** 0
216 CCL4 1077 GROUP 4 **** **** 0
217 CCL4 1082 GROUP 4 **** **** 0
218 CCL4 1087 GROUP 4 **** **** 0
219 CCL4 1092 GROUP 4 **** **** 0
220 CCL4 1097 GROUP 4 **** **** 0
221 CCL4 1102 GROUP 4 **** **** 0
222 CCL4 1107 GROUP 4 **** **** 0
223 CCL4 1112 GROUP 4 **** **** 0
224 CCL4 1117 GROUP 4 **** **** 0
225 CCL4 1122 GROUP 4 **** **** 0
226 CCL4 1127 GROUP 4 **** **** 0
227 CCL4 1132 GROUP 4 **** **** 0
228 CCL4 1137 GROUP 4 **** **** 0
229 CCL4 1142 GROUP 4 **** **** 0
230 CCL4 1147 GROUP 4 **** **** 0
231 CCL4 1152 GROUP 4 **** **** 0
232 CCL4 1157 GROUP 4 **** **** 0
233 CCL4 1162 GROUP 4 **** **** 0
234 CCL4 1167 GROUP 4 **** **** 0
235 CCL4 1172 GROUP 4 **** **** 0
236 CCL4 1177 GROUP 4 **** **** 0
237 CCL4 1182 GROUP 4 **** **** 0
238 CCL4 1187 GROUP 4 **** **** 0
239 CCL4 1192 GROUP 4 **** **** 0
240 CCL4 1197 GROUP 4 **** **** 0
241 CCL4 1202 GROUP 4 **** **** 0
242 CCL4 1207 GROUP 4 **** **** 0
243 CCL4 1212 GROUP 4 **** **** 0
244 CCL4 1217 GROUP 4 **** **** 0
245 CCL4 1222 GROUP 4 **** **** 0
246 CCL4 1227 GROUP 4 **** **** 0
247 CCL4 1232 GROUP 4 **** **** 0
248 CCL4 1237 GROUP 4 **** **** 0
249 CCL4 1242 GROUP 4 **** **** 0
250 CCL4 1247 GROUP 4 **** **** 0
251 CCL4 1252 GROUP 4 **** **** 0
252 CCL4 1257 GROUP 4 **** **** 0
253 CCL4 1262 GROUP 4 **** **** 0
254 CCL4 1267 GROUP 4 **** **** 0
255 CCL4 1272 GROUP 4 **** **** 0
256 CCL4 1277 GROUP 4 **** **** 0
257 CCL4 1282 GROUP 4 **** **** 0
258 CCL4 1287 GROUP 4 **** **** 0
259 CCL4 1292 GROUP 4 **** **** 0
260 CCL4 1297 GROUP 4 **** **** 0
261 CCL4 1302 GROUP 4 **** **** 0
262 CCL4 1307 GROUP 4 **** **** 0
263 CCL4 1312 GROUP 4 **** **** 0
264 CCL4 1317 GROUP 4 **** **** 0
265 CCL4 1322 GROUP 4 **** **** 0
266 CCL4 1327 GROUP 4 **** **** 0
267 CCL4 1332 GROUP 4 **** **** 0
268 CCL4 1337 GROUP 4 **** **** 0
269 CCL4 1342 GROUP 4 **** **** 0
270 CCL4 1347 GROUP 4 **** **** 0
271 CCL4 1352 GROUP 4 **** **** 0
272 CCL4 1357 GROUP 4 **** **** 0
273 CCL4 1362 GROUP 4 **** **** 0
274 CCL4 1367 GROUP 4 **** **** 0
275 CCL4 1372 GROUP 4 **** **** 0
276 CCL4 1377 GROUP 4 **** **** 0
277 CCL4 1382 GROUP 4 **** **** 0
278 CCL4 1387 GROUP 4 **** **** 0
279 CCL4 1392 GROUP 4 **** **** 0
280 CCL4 1397 GROUP 4 **** **** 0
281 CCL4 1402 GROUP 4 **** **** 0
282 CCL4 1407 GROUP 4 **** **** 0
283 CCL4 1412 GROUP 4 **** **** 0
284 CCL4 1417 GROUP 4 **** **** 0
285 CCL4 1422 GROUP 4 **** **** 0
286 CCL4 1427 GROUP 4 **** **** 0
287 CCL4 1432 GROUP 4 **** **** 0
288 CCL4 1437 GROUP 4 **** **** 0
289 CCL4 1442 GROUP 4 **** **** 0
290 CCL4 1447 GROUP 4 **** **** 0
291 CCL4 1452 GROUP 4 **** **** 0
292 CCL4 1457 GROUP 4 **** **** 0
293 CCL4 1462 GROUP 4 **** **** 0
294 CCL4 1467 GROUP 4 **** **** 0
295 CCL4 1472 GROUP 4 **** **** 0
296 CCL4 1477 GROUP 4 **** **** 0
297 CCL4 1482 GROUP 4 **** **** 0
298 CCL4 1487 GROUP 4 **** **** 0
299 CCL4 1492 GROUP 4 **** **** 0
300 CCL4 1497 GROUP 4 **** **** 0
301 CCL4 1502 GROUP 4 **** **** 0
302 CCL4 1507 GROUP 4 **** **** 0
303 CCL4 1512 GROUP 4 **** **** 0
304 CCL4 1517 GROUP 4 **** **** 0
305 CCL4 1522 GROUP 4 **** **** 0
306 CCL4 1527 GROUP 4 **** **** 0
307 CCL4 1532 GROUP 4 **** **** 0
308 CCL4 1537 GROUP 4 **** **** 0
309 CCL4 1542 GROUP 4 **** **** 0
310 CCL4 1547 GROUP 4 **** **** 0
311 CCL4 1552 GROUP 4 **** **** 0
312 CCL4 1557 GROUP 4 **** **** 0
313 CCL4 1562 GROUP 4 **** **** 0
314 CCL4 1567 GROUP 4 **** **** 0
315 CCL4 1572 GROUP 4 **** **** 0
316 CCL4 1577 GROUP 4 **** **** 0
317 CCL4 1582 GROUP 4 **** **** 0
318 CCL4 1587 GROUP 4 **** **** 0
319 CCL4 1592 GROUP 4 **** **** 0
320 CCL4 1597 GROUP 4 **** **** 0
321 CCL4 1602 GROUP 4 **** **** 0
322 CCL4 1607 GROUP 4 **** **** 0
323 CCL4 1612 GROUP 4 **** **** 0
324 CCL4 1617 GROUP 4 **** **** 0
325 CCL4 1622 GROUP 4 **** **** 0
326 CCL4 1627 GROUP 4 **** **** 0
327 CCL4 1632 GROUP 4 **** **** 0
328 CCL4 1637 GROUP 4 **** **** 0
329 CCL4 1642 GROUP 4 **** **** 0
330 CCL4 1647 GROUP 4 **** **** 0
331 CCL4 1652 GROUP 4 **** **** 0
332 CCL4 1657 GROUP 4 **** **** 0
333 CCL4 1662 GROUP 4 **** **** 0
334 CCL4 1667 GROUP 4 **** **** 0
335 CCL4 1672 GROUP 4 **** **** 0
336 CCL4 1677 GROUP 4 **** **** 0
337 CCL4 1682 GROUP 4 **** **** 0
338 CCL4 1687 GROUP 4 **** **** 0
339 CCL4 1692 GROUP 4 **** **** 0
340 CCL4 1697 GROUP 4 **** **** 0
341 CCL4 1702 GROUP 4 **** **** 0
342 CCL4 1707 GROUP 4 **** **** 0
343 CCL4 1712 GROUP 4 **** **** 0
344 CCL4 1717 GROUP 4 **** **** 0
345 CCL4 1722 GROUP 4 **** **** 0
346 CCL4 1727 GROUP 4 **** **** 0
347 CCL4 1732 GROUP 4 **** **** 0
348 CCL4 1737 GROUP 4 **** **** 0
349 CCL4 1742 GROUP 4 **** **** 0
350 CCL4 1747 GROUP 4 **** **** 0
351 CCL4 1752 GROUP 4 **** **** 0
352 CCL4 1757 GROUP 4 **** **** 0
353 CCL4 1762 GROUP 4 **** **** 0
354 CCL4 1767 GROUP 4 **** **** 0
355 CCL4 1772 GROUP 4 **** **** 0
356 CCL4 1777 GROUP 4 **** **** 0
357 CCL4 1782 GROUP 4 **** **** 0
358 CCL4 1787 GROUP 4 **** **** 0
359 CCL4 1792 GROUP 4 **** **** 0
360 CCL4 1797 GROUP 4 **** **** 0
361 CCL4 1802 GROUP 4 **** **** 0
362 CCL4 1807 GROUP 4 **** **** 0
363 CCL4 1812 GROUP 4 **** **** 0
364 CCL4 1817 GROUP 4 **** **** 0
365 CCL4 1822 GROUP 4 **** **** 0
366 CCL4 1827 GROUP 4 **** **** 0
367 CCL4 1832 GROUP 4 **** **** 0
368 CCL4 1837 GROUP 4 **** **** 0
369 CCL4 1842 GROUP 4 **** **** 0
370 CCL4 1847 GROUP 4 **** **** 0
371 CCL4 1852 GROUP 4 **** **** 0
372 CCL4 1857 GROUP 4 **** **** 0
373 CCL4 1862 GROUP 4 **** **** 0
374 CCL4 1867 GROUP 4 **** **** 0
375 CCL4 1872 GROUP 4 **** **** 0
376 CCL4 1877 GROUP 4 **** **** 0
377 CCL4 1882 GROUP 4 **** **** 0
378 CCL4 1887 GROUP 4 **** **** 0
379 CCL4 1892 GROUP 4 **** **** 0
380 CCL4 1897 GROUP 4 **** **** 0
381 CCL4 1902 GROUP 4 **** **** 0
382 CCL4 1907 GROUP 4 **** **** 0
383 CCL4 1912 GROUP 4 **** **** 0
384 CCL4 1917 GROUP 4 **** **** 0
385 CCL4 1922 GROUP 4 **** **** 0
386 CCL4 1927 GROUP 4 **** **** 0
387 CCL4 1932 GROUP 4 **** **** 0
388 CCL4 1937 GROUP 4 **** **** 0
389 CCL4 1942 GROUP 4 **** **** 0
390 CCL4 1947 GROUP 4 **** **** 0
391 CCL4 1952 GROUP 4 **** **** 0
392 CCL4 1957 GROUP 4 **** **** 0
393 CCL4 1962 GROUP 4 **** **** 0
394 CCL4 1967 GROUP 4 **** **** 0
395 CCL4 1972 GROUP 4 **** **** 0
396 CCL4 1977 GROUP 4 **** **** 0
397 CCL4 1982 GROUP 4 **** **** 0
398 CCL4 1987 GROUP 4 **** **** 0
399 CCL4 1992 GROUP 4 **** **** 0
400 CCL4 1997 GROUP 4 **** **** 0
401 CCL4 2002 GROUP 4 **** **** 0
402 CCL4 2007 GROUP 4 **** **** 0
403 CCL4 2012 GROUP 4 **** **** 0
404 CCL4 2017 GROUP 4 **** **** 0
405 CCL4 2022 GROUP 4 **** **** 0
406 CCL4 2027 GROUP 4 **** **** 0
407 CCL4 2032 GROUP 4 **** **** 0
408 CCL4 2037 GROUP 4 **** **** 0
409 CCL4 2042 GROUP 4 **** **** 0
410 CCL4 2047 GROUP 4 **** **** 0
411 CCL4 2052 GROUP 4 **** **** 0
412 CCL4 2057 GROUP 4 **** **** 0
413 CCL4 2062 GROUP 4 **** **** 0
414 CCL4 2067 GROUP 4 **** **** 0
415 CCL4 2072 GROUP 4 **** **** 0
416 CCL4 2077 GROUP 4 **** **** 0
417 CCL4 2082 GROUP 4 **** **** 0
418 CCL4 2087 GROUP 4 **** **** 0
419 CCL4 2092 GROUP 4 **** **** 0
420 CCL4 2097 GROUP 4 **** **** 0
421 CCL4 2102 GROUP 4 **** **** 0
422 CCL4 2107 GROUP 4 **** **** 0
423 CCL4 2112 GROUP 4 **** **** 0
424 CCL4 2117 GROUP 4 **** **** 0
425 CCL4 2122 GROUP 4 **** **** 0
426 CCL4 2127 GROUP 4 **** **** 0
427 CCL4 2132 GROUP 4 **** **** 0
428 CCL4 2137 GROUP 4 **** **** 0
429 CCL4 2142 GROUP 4 **** **** 0
430 CCL4 2147 GROUP 4 **** **** 0
431 CCL4 2152 GROUP 4 **** **** 0
432 CCL4 2157 GROUP 4 **** **** 0
433 CCL4 2162 GROUP 4 **** **** 0
434 CCL4 2167 GROUP 4 **** **** 0
435 CCL4 2172 GROUP 4 **** **** 0
436 CCL4 2177 GROUP 4 **** **** 0
437 CCL4 2182 GROUP 4 **** **** 0
438 CCL4 2187 GROUP 4 **** **** 0
439 CCL4 2192 GROUP 4 **** **** 0
440 CCL4 2197 GROUP 4 **** **** 0
441 CCL4 2202 GROUP 4 **** **** 0
442 CCL4 2207 GROUP 4 **** **** 0
443 CCL4 2212 GROUP 4 **** **** 0
444 CCL4 2217 GROUP 4 **** **** 0
445 CCL4 2222 GROUP 4 **** **** 0
446 CCL4 2227 GROUP 4 **** **** 0
447 CCL4 2232 GROUP 4 **** **** 0
448 CCL4 2237 GROUP 4 **** **** 0
449 CCL4 2242 GROUP 4 **** **** 0
450 CCL4 2247 GROUP 4 **** **** 0
451 CCL4 2252 GROUP 4 **** **** 0
452 CCL4 2257 GROUP 4 **** **** 0
453 CCL4 2262 GROUP 4 **** **** 0
454 CCL4 2267 GROUP 4 **** **** 0
455 CCL4 2272 GROUP 4 **** **** 0
456 CCL4 2277 GROUP 4 **** **** 0
457 CCL4 2282 GROUP 4 **** **** 0
458 CCL4 2287 GROUP 4 **** **** 0
459 CCL4 2292 GROUP 4 **** **** 0
460 CCL4 2297 GROUP 4 **** **** 0
461 CCL4 2302 GROUP 4 **** **** 0
462 CCL4 2307 GROUP 4 **** **** 0
463 CCL4 2312 GROUP 4 **** **** 0
464 CCL4 2317 GROUP 4 **** **** 0
465 CCL4 2322 GROUP 4 **** **** 0
466 CCL4 2327 GROUP 4 **** **** 0
467 CCL4 2332 GROUP 4 **** **** 0
468 CCL4 2337 GROUP 4 **** **** 0
469 CCL4 2342 GROUP 4 **** **** 0
470 CCL4 2347 GROUP 4 **** **** 0
471 CCL4 2352 GROUP 4 **** **** 0
472 CCL4 2357 GROUP 4 **** **** 0
473 CCL4 2362 GROUP 4 **** **** 0
474 CCL4 2367 GROUP 4 **** **** 0
475 CCL4 2372 GROUP 4 **** **** 0
476 CCL4 2377 GROUP 4 **** **** 0
477 CCL4 2382 GROUP 4 **** **** 0
478 CCL4 2387 GROUP 4 **** **** 0
479 CCL4 2392 GROUP 4 **** **** 0
480 CCL4 2397 GROUP 4 **** **** 0
481 CCL4 2402 GROUP 4 **** **** 0
482 CCL4 2407 GROUP 4 **** **** 0
483 CCL4 2412 GROUP 4 **** **** 0
484 CCL4 2417 GROUP 4 **** **** 0
485 CCL4 2422 GROUP 4 **** **** 0
486 CCL4 2427 GROUP 4 **** **** 0
487 CCL4 2432 GROUP 4 **** **** 0
488 CCL4 2437 GROUP 4 **** **** 0
489 CCL4 2442 GROUP 4 **** **** 0
490 CCL4 2447 GROUP 4 **** **** 0
491 CCL4 2452 GROUP 4 **** **** 0
492 CCL4 2457 GROUP 4 **** **** 0

# MOE 2020.09 (io_trps.svl 2020.11)
