@<TRIPOS>MOLECULE
Compound
53 52 1 0 1
SMALL
USER_CHARGES
@<TRIPOS>CRYSIN
   12.1453    10.9560    24.5934    90.0000    90.0000    90.0000 1 1
@<TRIPOS>ATOM
       1 O           34.3017     5.3900    20.7565 O             1 Compound  -0.853800
       2 O           32.4081     5.9836    21.7282 O             1 Compound  -0.853800
       3 C           34.1449     4.9437    28.1713 C             1 Compound  -0.079400
       4 C           33.4586     5.4805    29.4453 C             1 Compound  -0.080400
       5 C           33.4683     5.4979    26.9003 C             1 Compound  -0.078400
       6 C           34.1449     4.9437    30.7214 C             1 Compound  -0.076400
       7 C           34.1559     4.9729    25.6232 C             1 Compound  -0.078400
       8 C           33.5299     2.9227    36.2469 C             1 Compound  -0.079400
       9 C           33.6212     3.4973    37.6790 C             1 Compound  -0.078400
      10 C           32.6406     3.8102    35.3503 C             1 Compound  -0.077400
      11 C           33.5251     5.5287    32.0093 C             1 Compound  -0.050200
      12 C           33.4847     5.5400    24.3541 C             1 Compound  -0.065400
      13 C           34.4146     2.5878    38.6446 C             1 Compound  -0.077400
      14 C           32.5500     3.2521    33.9161 C             1 Compound  -0.045200
      15 C           32.0895     5.0786    32.2124 C             1 Compound  -0.159200
      16 C           35.9218     2.5205    38.3085 C             1 Compound  -0.081400
      17 C           31.6721     4.1303    33.0467 C             1 Compound  -0.190200
      18 C           34.1710     5.0190    23.0721 C             1 Compound  -0.194400
      19 C           36.6906     1.6986    39.3592 C             1 Compound  -0.092100
      20 C           33.5574     5.5964    21.8099 C             1 Compound   0.907600
      21 H           34.0985     3.8517    28.1642 H             1 Compound   0.034200
      22 H           35.1997     5.2301    28.1778 H             1 Compound   0.034200
      23 H           33.4963     6.5724    29.4452 H             1 Compound   0.038700
      24 H           32.4066     5.1849    29.4387 H             1 Compound   0.038700
      25 H           33.5093     6.5904    26.9127 H             1 Compound   0.036700
      26 H           32.4137     5.2081    26.8924 H             1 Compound   0.036700
      27 H           35.2057     5.2050    30.6946 H             1 Compound   0.038200
      28 H           34.0801     3.8528    30.7482 H             1 Compound   0.038200
      29 H           35.2114     5.2566    25.6351 H             1 Compound   0.025700
      30 H           34.1079     3.8806    25.6054 H             1 Compound   0.025700
      31 H           33.1146     1.9126    36.2843 H             1 Compound   0.039200
      32 H           34.5266     2.8561    35.8064 H             1 Compound   0.039200
      33 H           32.6106     3.6193    38.0757 H             1 Compound   0.038700
      34 H           34.0769     4.4905    37.6523 H             1 Compound   0.038700
      35 H           31.6373     3.8747    35.7783 H             1 Compound   0.040200
      36 H           33.0510     4.8227    35.3192 H             1 Compound   0.040200
      37 H           33.5625     6.6200    31.9711 H             1 Compound   0.043700
      38 H           34.1461     5.2358    32.8579 H             1 Compound   0.043700
      39 H           32.4288     5.2554    24.3445 H             1 Compound   0.043700
      40 H           33.5323     6.6314    24.3719 H             1 Compound   0.043700
      41 H           33.9878     1.5815    38.6369 H             1 Compound   0.037200
      42 H           34.2963     2.9774    39.6582 H             1 Compound   0.037200
      43 H           33.5539     3.1638    33.4946 H             1 Compound   0.045200
      44 H           32.1343     2.2412    33.9401 H             1 Compound   0.045200
      45 H           31.3489     5.6302    31.6384 H             1 Compound   0.128000
      46 H           36.0712     2.0648    37.3277 H             1 Compound   0.040700
      47 H           36.3363     3.5310    38.2707 H             1 Compound   0.040700
      48 H           30.6070     3.9223    33.1113 H             1 Compound   0.119000
      49 H           34.1035     3.9288    23.0306 H             1 Compound   0.018700
      50 H           35.2331     5.2769    23.1004 H             1 Compound   0.018700
      51 H           36.3103     0.6754    39.4028 H             1 Compound   0.031033
      52 H           36.5928     2.1485    40.3500 H             1 Compound   0.031033
      53 H           37.7522     1.6595    39.1050 H             1 Compound   0.031033
@<TRIPOS>BOND
       1        1       20 1
       2        2       20 1
       3        3        4 1
       4        3        5 1
       5        3       21 1
       6        3       22 1
       7        4        6 1
       8        4       23 1
       9        4       24 1
      10        5        7 1
      11        5       25 1
      12        5       26 1
      13        6       11 1
      14        6       27 1
      15        6       28 1
      16        7       12 1
      17        7       29 1
      18        7       30 1
      19        8        9 1
      20        8       10 1
      21        8       31 1
      22        8       32 1
      23        9       13 1
      24        9       33 1
      25        9       34 1
      26       10       14 1
      27       10       35 1
      28       10       36 1
      29       11       15 1
      30       11       37 1
      31       11       38 1
      32       12       18 1
      33       12       39 1
      34       12       40 1
      35       13       16 1
      36       13       41 1
      37       13       42 1
      38       14       17 1
      39       14       43 1
      40       14       44 1
      41       15       17 1
      42       15       45 1
      43       16       19 1
      44       16       46 1
      45       16       47 1
      46       17       48 1
      47       18       20 1
      48       18       49 1
      49       18       50 1
      50       19       51 1
      51       19       52 1
      52       19       53 1
@<TRIPOS>SUBSTRUCTURE
       1 Compound        1 RESIDUE    0 **** ROOT      0
