@<TRIPOS>MOLECULE
Compound
53 52 1 0 1
SMALL
USER_CHARGES
@<TRIPOS>CRYSIN
   12.1453    10.9560    24.5934    90.0000    90.0000    90.0000 1 1
@<TRIPOS>ATOM
       1 O           15.5754    15.4157    14.2869 O             1 Compound  -0.853800
       2 O           13.6817    16.0093    15.2586 O             1 Compound  -0.853800
       3 C           15.4186    14.9694    21.7016 C             1 Compound  -0.079400
       4 C           14.7322    15.5062    22.9757 C             1 Compound  -0.080400
       5 C           14.7419    15.5236    20.4307 C             1 Compound  -0.078400
       6 C           15.4186    14.9694    24.2517 C             1 Compound  -0.076400
       7 C           15.4296    14.9986    19.1536 C             1 Compound  -0.078400
       8 C           14.8035    12.9484    29.7773 C             1 Compound  -0.079400
       9 C           14.8948    13.5230    31.2094 C             1 Compound  -0.078400
      10 C           13.9142    13.8359    28.8807 C             1 Compound  -0.077400
      11 C           14.7988    15.5544    25.5396 C             1 Compound  -0.050200
      12 C           14.7584    15.5657    17.8845 C             1 Compound  -0.065400
      13 C           15.6883    12.6135    32.1750 C             1 Compound  -0.077400
      14 C           13.8236    13.2778    27.4465 C             1 Compound  -0.045200
      15 C           13.3632    15.1043    25.7427 C             1 Compound  -0.159200
      16 C           17.1955    12.5462    31.8389 C             1 Compound  -0.081400
      17 C           12.9458    14.1560    26.5770 C             1 Compound  -0.190200
      18 C           15.4446    15.0447    16.6025 C             1 Compound  -0.194400
      19 C           17.9642    11.7243    32.8896 C             1 Compound  -0.092100
      20 C           14.8310    15.6221    15.3403 C             1 Compound   0.907600
      21 H           15.3722    13.8774    21.6946 H             1 Compound   0.034200
      22 H           16.4734    15.2558    21.7082 H             1 Compound   0.034200
      23 H           14.7700    16.5981    22.9756 H             1 Compound   0.038700
      24 H           13.6803    15.2106    22.9691 H             1 Compound   0.038700
      25 H           14.7830    16.6161    20.4431 H             1 Compound   0.036700
      26 H           13.6874    15.2338    20.4228 H             1 Compound   0.036700
      27 H           16.4793    15.2307    24.2250 H             1 Compound   0.038200
      28 H           15.3538    13.8785    24.2786 H             1 Compound   0.038200
      29 H           16.4851    15.2823    19.1654 H             1 Compound   0.025700
      30 H           15.3816    13.9063    19.1358 H             1 Compound   0.025700
      31 H           14.3883    11.9383    29.8147 H             1 Compound   0.039200
      32 H           15.8002    12.8818    29.3368 H             1 Compound   0.039200
      33 H           13.8842    13.6450    31.6060 H             1 Compound   0.038700
      34 H           15.3506    14.5162    31.1827 H             1 Compound   0.038700
      35 H           12.9109    13.9004    29.3087 H             1 Compound   0.040200
      36 H           14.3247    14.8484    28.8495 H             1 Compound   0.040200
      37 H           14.8362    16.6457    25.5015 H             1 Compound   0.043700
      38 H           15.4198    15.2615    26.3883 H             1 Compound   0.043700
      39 H           13.7024    15.2811    17.8749 H             1 Compound   0.043700
      40 H           14.8059    16.6571    17.9023 H             1 Compound   0.043700
      41 H           15.2614    11.6072    32.1672 H             1 Compound   0.037200
      42 H           15.5699    13.0031    33.1886 H             1 Compound   0.037200
      43 H           14.8275    13.1895    27.0250 H             1 Compound   0.045200
      44 H           13.4080    12.2669    27.4704 H             1 Compound   0.045200
      45 H           12.6226    15.6559    25.1688 H             1 Compound   0.128000
      46 H           17.3449    12.0905    30.8581 H             1 Compound   0.040700
      47 H           17.6099    13.5567    31.8011 H             1 Compound   0.040700
      48 H           11.8806    13.9480    26.6417 H             1 Compound   0.119000
      49 H           15.3771    13.9545    16.5610 H             1 Compound   0.018700
      50 H           16.5068    15.3026    16.6308 H             1 Compound   0.018700
      51 H           17.5840    10.7011    32.9332 H             1 Compound   0.031033
      52 H           17.8664    12.1742    33.8803 H             1 Compound   0.031033
      53 H           19.0259    11.6852    32.6354 H             1 Compound   0.031033
@<TRIPOS>BOND
       1        1       20 1
       2        2       20 1
       3        3        4 1
       4        3        5 1
       5        3       21 1
       6        3       22 1
       7        4        6 1
       8        4       23 1
       9        4       24 1
      10        5        7 1
      11        5       25 1
      12        5       26 1
      13        6       11 1
      14        6       27 1
      15        6       28 1
      16        7       12 1
      17        7       29 1
      18        7       30 1
      19        8        9 1
      20        8       10 1
      21        8       31 1
      22        8       32 1
      23        9       13 1
      24        9       33 1
      25        9       34 1
      26       10       14 1
      27       10       35 1
      28       10       36 1
      29       11       15 1
      30       11       37 1
      31       11       38 1
      32       12       18 1
      33       12       39 1
      34       12       40 1
      35       13       16 1
      36       13       41 1
      37       13       42 1
      38       14       17 1
      39       14       43 1
      40       14       44 1
      41       15       17 1
      42       15       45 1
      43       16       19 1
      44       16       46 1
      45       16       47 1
      46       17       48 1
      47       18       20 1
      48       18       49 1
      49       18       50 1
      50       19       51 1
      51       19       52 1
      52       19       53 1
@<TRIPOS>SUBSTRUCTURE
       1 Compound        1 RESIDUE    0 **** ROOT      0
