@<TRIPOS>MOLECULE
Compound
53 52 1 0 1
SMALL
USER_CHARGES
@<TRIPOS>CRYSIN
   12.1453    10.9560    24.5934    90.0000    90.0000    90.0000 1 1
@<TRIPOS>ATOM
       1 O           18.9130     9.6348    14.2869 O             1 Compound  -0.853800
       2 O           17.0193    10.2284    15.2586 O             1 Compound  -0.853800
       3 C           18.7562     9.1885    21.7016 C             1 Compound  -0.079400
       4 C           18.0698     9.7253    22.9757 C             1 Compound  -0.080400
       5 C           18.0795     9.7427    20.4307 C             1 Compound  -0.078400
       6 C           18.7562     9.1885    24.2517 C             1 Compound  -0.076400
       7 C           18.7672     9.2177    19.1536 C             1 Compound  -0.078400
       8 C           18.1411     7.1675    29.7773 C             1 Compound  -0.079400
       9 C           18.2324     7.7421    31.2094 C             1 Compound  -0.078400
      10 C           17.2518     8.0550    28.8807 C             1 Compound  -0.077400
      11 C           18.1364     9.7735    25.5396 C             1 Compound  -0.050200
      12 C           18.0960     9.7848    17.8845 C             1 Compound  -0.065400
      13 C           19.0258     6.8326    32.1750 C             1 Compound  -0.077400
      14 C           17.1612     7.4969    27.4465 C             1 Compound  -0.045200
      15 C           16.7008     9.3234    25.7427 C             1 Compound  -0.159200
      16 C           20.5331     6.7653    31.8389 C             1 Compound  -0.081400
      17 C           16.2834     8.3751    26.5770 C             1 Compound  -0.190200
      18 C           18.7822     9.2638    16.6025 C             1 Compound  -0.194400
      19 C           21.3018     5.9434    32.8896 C             1 Compound  -0.092100
      20 C           18.1686     9.8412    15.3403 C             1 Compound   0.907600
      21 H           18.7098     8.0965    21.6946 H             1 Compound   0.034200
      22 H           19.8110     9.4749    21.7082 H             1 Compound   0.034200
      23 H           18.1076    10.8172    22.9756 H             1 Compound   0.038700
      24 H           17.0179     9.4297    22.9691 H             1 Compound   0.038700
      25 H           18.1206    10.8352    20.4431 H             1 Compound   0.036700
      26 H           17.0250     9.4529    20.4228 H             1 Compound   0.036700
      27 H           19.8169     9.4498    24.2250 H             1 Compound   0.038200
      28 H           18.6914     8.0976    24.2786 H             1 Compound   0.038200
      29 H           19.8227     9.5014    19.1654 H             1 Compound   0.025700
      30 H           18.7192     8.1254    19.1358 H             1 Compound   0.025700
      31 H           17.7259     6.1574    29.8147 H             1 Compound   0.039200
      32 H           19.1378     7.1009    29.3368 H             1 Compound   0.039200
      33 H           17.2218     7.8641    31.6060 H             1 Compound   0.038700
      34 H           18.6882     8.7353    31.1827 H             1 Compound   0.038700
      35 H           16.2485     8.1195    29.3087 H             1 Compound   0.040200
      36 H           17.6623     9.0675    28.8495 H             1 Compound   0.040200
      37 H           18.1738    10.8648    25.5015 H             1 Compound   0.043700
      38 H           18.7574     9.4806    26.3883 H             1 Compound   0.043700
      39 H           17.0400     9.5002    17.8749 H             1 Compound   0.043700
      40 H           18.1435    10.8762    17.9023 H             1 Compound   0.043700
      41 H           18.5990     5.8263    32.1672 H             1 Compound   0.037200
      42 H           18.9075     7.2222    33.1886 H             1 Compound   0.037200
      43 H           18.1651     7.4086    27.0250 H             1 Compound   0.045200
      44 H           16.7456     6.4860    27.4704 H             1 Compound   0.045200
      45 H           15.9602     9.8750    25.1688 H             1 Compound   0.128000
      46 H           20.6825     6.3096    30.8581 H             1 Compound   0.040700
      47 H           20.9475     7.7758    31.8011 H             1 Compound   0.040700
      48 H           15.2182     8.1671    26.6417 H             1 Compound   0.119000
      49 H           18.7147     8.1736    16.5610 H             1 Compound   0.018700
      50 H           19.8444     9.5217    16.6308 H             1 Compound   0.018700
      51 H           20.9216     4.9202    32.9332 H             1 Compound   0.031033
      52 H           21.2040     6.3933    33.8803 H             1 Compound   0.031033
      53 H           22.3635     5.9043    32.6354 H             1 Compound   0.031033
@<TRIPOS>BOND
       1        1       20 1
       2        2       20 1
       3        3        4 1
       4        3        5 1
       5        3       21 1
       6        3       22 1
       7        4        6 1
       8        4       23 1
       9        4       24 1
      10        5        7 1
      11        5       25 1
      12        5       26 1
      13        6       11 1
      14        6       27 1
      15        6       28 1
      16        7       12 1
      17        7       29 1
      18        7       30 1
      19        8        9 1
      20        8       10 1
      21        8       31 1
      22        8       32 1
      23        9       13 1
      24        9       33 1
      25        9       34 1
      26       10       14 1
      27       10       35 1
      28       10       36 1
      29       11       15 1
      30       11       37 1
      31       11       38 1
      32       12       18 1
      33       12       39 1
      34       12       40 1
      35       13       16 1
      36       13       41 1
      37       13       42 1
      38       14       17 1
      39       14       43 1
      40       14       44 1
      41       15       17 1
      42       15       45 1
      43       16       19 1
      44       16       46 1
      45       16       47 1
      46       17       48 1
      47       18       20 1
      48       18       49 1
      49       18       50 1
      50       19       51 1
      51       19       52 1
      52       19       53 1
@<TRIPOS>SUBSTRUCTURE
       1 Compound        1 RESIDUE    0 **** ROOT      0
