@<TRIPOS>MOLECULE
Compound
53 52 1 0 1
SMALL
USER_CHARGES
@<TRIPOS>CRYSIN
   12.1453    10.9560    24.5934    90.0000    90.0000    90.0000 1 1
@<TRIPOS>ATOM
       1 O           25.5882    13.4887    14.2869 O             1 Compound  -0.853800
       2 O           23.6945    14.0823    15.2586 O             1 Compound  -0.853800
       3 C           25.4314    13.0424    21.7016 C             1 Compound  -0.079400
       4 C           24.7450    13.5792    22.9757 C             1 Compound  -0.080400
       5 C           24.7547    13.5966    20.4307 C             1 Compound  -0.078400
       6 C           25.4314    13.0424    24.2517 C             1 Compound  -0.076400
       7 C           25.4424    13.0716    19.1536 C             1 Compound  -0.078400
       8 C           24.8163    11.0214    29.7773 C             1 Compound  -0.079400
       9 C           24.9076    11.5960    31.2094 C             1 Compound  -0.078400
      10 C           23.9270    11.9089    28.8807 C             1 Compound  -0.077400
      11 C           24.8116    13.6274    25.5396 C             1 Compound  -0.050200
      12 C           24.7712    13.6387    17.8845 C             1 Compound  -0.065400
      13 C           25.7011    10.6865    32.1750 C             1 Compound  -0.077400
      14 C           23.8364    11.3508    27.4465 C             1 Compound  -0.045200
      15 C           23.3760    13.1773    25.7427 C             1 Compound  -0.159200
      16 C           27.2083    10.6192    31.8389 C             1 Compound  -0.081400
      17 C           22.9586    12.2290    26.5770 C             1 Compound  -0.190200
      18 C           25.4574    13.1177    16.6025 C             1 Compound  -0.194400
      19 C           27.9770     9.7973    32.8896 C             1 Compound  -0.092100
      20 C           24.8438    13.6951    15.3403 C             1 Compound   0.907600
      21 H           25.3850    11.9504    21.6946 H             1 Compound   0.034200
      22 H           26.4862    13.3288    21.7082 H             1 Compound   0.034200
      23 H           24.7828    14.6711    22.9756 H             1 Compound   0.038700
      24 H           23.6931    13.2836    22.9691 H             1 Compound   0.038700
      25 H           24.7958    14.6891    20.4431 H             1 Compound   0.036700
      26 H           23.7002    13.3068    20.4228 H             1 Compound   0.036700
      27 H           26.4921    13.3037    24.2250 H             1 Compound   0.038200
      28 H           25.3666    11.9515    24.2786 H             1 Compound   0.038200
      29 H           26.4979    13.3553    19.1654 H             1 Compound   0.025700
      30 H           25.3944    11.9793    19.1358 H             1 Compound   0.025700
      31 H           24.4011    10.0113    29.8147 H             1 Compound   0.039200
      32 H           25.8130    10.9548    29.3368 H             1 Compound   0.039200
      33 H           23.8970    11.7180    31.6060 H             1 Compound   0.038700
      34 H           25.3634    12.5892    31.1827 H             1 Compound   0.038700
      35 H           22.9237    11.9734    29.3087 H             1 Compound   0.040200
      36 H           24.3375    12.9214    28.8495 H             1 Compound   0.040200
      37 H           24.8490    14.7187    25.5015 H             1 Compound   0.043700
      38 H           25.4326    13.3345    26.3883 H             1 Compound   0.043700
      39 H           23.7152    13.3541    17.8749 H             1 Compound   0.043700
      40 H           24.8187    14.7301    17.9023 H             1 Compound   0.043700
      41 H           25.2742     9.6802    32.1672 H             1 Compound   0.037200
      42 H           25.5827    11.0761    33.1886 H             1 Compound   0.037200
      43 H           24.8403    11.2625    27.0250 H             1 Compound   0.045200
      44 H           23.4208    10.3399    27.4704 H             1 Compound   0.045200
      45 H           22.6354    13.7289    25.1688 H             1 Compound   0.128000
      46 H           27.3577    10.1635    30.8581 H             1 Compound   0.040700
      47 H           27.6227    11.6297    31.8011 H             1 Compound   0.040700
      48 H           21.8934    12.0210    26.6417 H             1 Compound   0.119000
      49 H           25.3899    12.0275    16.5610 H             1 Compound   0.018700
      50 H           26.5196    13.3756    16.6308 H             1 Compound   0.018700
      51 H           27.5968     8.7741    32.9332 H             1 Compound   0.031033
      52 H           27.8792    10.2472    33.8803 H             1 Compound   0.031033
      53 H           29.0387     9.7582    32.6354 H             1 Compound   0.031033
@<TRIPOS>BOND
       1        1       20 1
       2        2       20 1
       3        3        4 1
       4        3        5 1
       5        3       21 1
       6        3       22 1
       7        4        6 1
       8        4       23 1
       9        4       24 1
      10        5        7 1
      11        5       25 1
      12        5       26 1
      13        6       11 1
      14        6       27 1
      15        6       28 1
      16        7       12 1
      17        7       29 1
      18        7       30 1
      19        8        9 1
      20        8       10 1
      21        8       31 1
      22        8       32 1
      23        9       13 1
      24        9       33 1
      25        9       34 1
      26       10       14 1
      27       10       35 1
      28       10       36 1
      29       11       15 1
      30       11       37 1
      31       11       38 1
      32       12       18 1
      33       12       39 1
      34       12       40 1
      35       13       16 1
      36       13       41 1
      37       13       42 1
      38       14       17 1
      39       14       43 1
      40       14       44 1
      41       15       17 1
      42       15       45 1
      43       16       19 1
      44       16       46 1
      45       16       47 1
      46       17       48 1
      47       18       20 1
      48       18       49 1
      49       18       50 1
      50       19       51 1
      51       19       52 1
      52       19       53 1
@<TRIPOS>SUBSTRUCTURE
       1 Compound        1 RESIDUE    0 **** ROOT      0
