@<TRIPOS>MOLECULE
Compound
53 52 1 0 1
SMALL
NO_CHARGES
@<TRIPOS>CRYSIN
   12.1453    10.9560    24.5934    90.0000    90.0000    90.0000 1 1
@<TRIPOS>ATOM
       1 O           12.2378     5.7809    14.2869 O             1 Compound
       2 O           10.3441     6.3745    15.2586 O             1 Compound
       3 C           12.0810     5.3346    21.7016 C             1 Compound
       4 C           11.3946     5.8714    22.9757 C             1 Compound
       5 C           11.4043     5.8888    20.4307 C             1 Compound
       6 C           12.0810     5.3346    24.2517 C             1 Compound
       7 C           12.0920     5.3638    19.1536 C             1 Compound
       8 C           11.4659     3.3136    29.7773 C             1 Compound
       9 C           11.5572     3.8882    31.2094 C             1 Compound
      10 C           10.5766     4.2011    28.8807 C             1 Compound
      11 C           11.4612     5.9196    25.5396 C             1 Compound
      12 C           11.4208     5.9309    17.8845 C             1 Compound
      13 C           12.3507     2.9787    32.1750 C             1 Compound
      14 C           10.4860     3.6430    27.4465 C             1 Compound
      15 C           10.0256     5.4695    25.7427 C             1 Compound
      16 C           13.8579     2.9114    31.8389 C             1 Compound
      17 C            9.6082     4.5212    26.5770 C             1 Compound
      18 C           12.1070     5.4099    16.6025 C             1 Compound
      19 C           14.6266     2.0895    32.8896 C             1 Compound
      20 C           11.4934     5.9873    15.3403 C             1 Compound
      21 H           12.0346     4.2426    21.6946 H             1 Compound
      22 H           13.1358     5.6210    21.7082 H             1 Compound
      23 H           11.4324     6.9633    22.9756 H             1 Compound
      24 H           10.3427     5.5758    22.9691 H             1 Compound
      25 H           11.4454     6.9813    20.4431 H             1 Compound
      26 H           10.3498     5.5990    20.4228 H             1 Compound
      27 H           13.1417     5.5959    24.2250 H             1 Compound
      28 H           12.0162     4.2437    24.2786 H             1 Compound
      29 H           13.1475     5.6475    19.1654 H             1 Compound
      30 H           12.0440     4.2715    19.1358 H             1 Compound
      31 H           11.0507     2.3035    29.8147 H             1 Compound
      32 H           12.4626     3.2470    29.3368 H             1 Compound
      33 H           10.5466     4.0102    31.6060 H             1 Compound
      34 H           12.0130     4.8814    31.1827 H             1 Compound
      35 H            9.5733     4.2656    29.3087 H             1 Compound
      36 H           10.9871     5.2136    28.8495 H             1 Compound
      37 H           11.4986     7.0109    25.5015 H             1 Compound
      38 H           12.0822     5.6267    26.3883 H             1 Compound
      39 H           10.3648     5.6463    17.8749 H             1 Compound
      40 H           11.4683     7.0223    17.9023 H             1 Compound
      41 H           11.9238     1.9724    32.1672 H             1 Compound
      42 H           12.2323     3.3683    33.1886 H             1 Compound
      43 H           11.4899     3.5547    27.0250 H             1 Compound
      44 H           10.0704     2.6321    27.4704 H             1 Compound
      45 H            9.2850     6.0211    25.1688 H             1 Compound
      46 H           14.0073     2.4557    30.8581 H             1 Compound
      47 H           14.2723     3.9219    31.8011 H             1 Compound
      48 H            8.5430     4.3132    26.6417 H             1 Compound
      49 H           12.0395     4.3197    16.5610 H             1 Compound
      50 H           13.1692     5.6678    16.6308 H             1 Compound
      51 H           14.2464     1.0663    32.9332 H             1 Compound
      52 H           14.5288     2.5394    33.8803 H             1 Compound
      53 H           15.6883     2.0504    32.6354 H             1 Compound
@<TRIPOS>BOND
       1        1       20 1
       2        2       20 1
       3        3        4 1
       4        3        5 1
       5        3       21 1
       6        3       22 1
       7        4        6 1
       8        4       23 1
       9        4       24 1
      10        5        7 1
      11        5       25 1
      12        5       26 1
      13        6       11 1
      14        6       27 1
      15        6       28 1
      16        7       12 1
      17        7       29 1
      18        7       30 1
      19        8        9 1
      20        8       10 1
      21        8       31 1
      22        8       32 1
      23        9       13 1
      24        9       33 1
      25        9       34 1
      26       10       14 1
      27       10       35 1
      28       10       36 1
      29       11       15 1
      30       11       37 1
      31       11       38 1
      32       12       18 1
      33       12       39 1
      34       12       40 1
      35       13       16 1
      36       13       41 1
      37       13       42 1
      38       14       17 1
      39       14       43 1
      40       14       44 1
      41       15       17 1
      42       15       45 1
      43       16       19 1
      44       16       46 1
      45       16       47 1
      46       17       48 1
      47       18       20 1
      48       18       49 1
      49       18       50 1
      50       19       51 1
      51       19       52 1
      52       19       53 1
@<TRIPOS>SUBSTRUCTURE
       1 Compound        1 RESIDUE    0 **** ROOT      0
