@<TRIPOS>MOLECULE
Compound
53 52 1 0 1
SMALL
USER_CHARGES
@<TRIPOS>CRYSIN
   12.4883     9.6466    24.5934    90.0000    90.0000    90.0000 1 1
@<TRIPOS>ATOM
       1 O           28.9258     3.8539    14.2869 O             1 Compound  -0.853800
       2 O           30.9083     3.9438    15.2586 O             1 Compound  -0.853800
       3 C           28.9206     4.3269    21.7016 C             1 Compound  -0.079400
       4 C           29.7491     4.0573    22.9757 C             1 Compound  -0.080400
       5 C           29.7459     4.0375    20.4307 C             1 Compound  -0.078400
       6 C           28.9206     4.3269    24.2517 C             1 Compound  -0.076400
       7 C           28.9202     4.2957    19.1536 C             1 Compound  -0.078400
       8 C           28.8073     6.4364    29.7773 C             1 Compound  -0.079400
       9 C           28.9180     5.8652    31.2094 C             1 Compound  -0.078400
      10 C           29.9465     5.9066    28.8807 C             1 Compound  -0.077400
      11 C           29.7030     3.9892    25.5396 C             1 Compound  -0.050200
      12 C           29.7448     3.9924    17.8845 C             1 Compound  -0.065400
      13 C           27.8613     6.4485    32.1750 C             1 Compound  -0.077400
      14 C           29.8407     6.4620    27.4465 C             1 Compound  -0.045200
      15 C           30.8981     4.9031    25.7427 C             1 Compound  -0.159200
      16 C           26.4220     5.9963    31.8389 C             1 Compound  -0.081400
      17 C           30.9660     5.9370    26.5770 C             1 Compound  -0.190200
      18 C           28.9218     4.2472    16.6025 C             1 Compound  -0.194400
      19 C           25.4185     6.5057    32.8896 C             1 Compound  -0.092100
      20 C           29.6959     3.9145    15.3403 C             1 Compound   0.907600
      21 H           28.5906     5.3689    21.6946 H             1 Compound   0.034200
      22 H           28.0273     3.6971    21.7082 H             1 Compound   0.034200
      23 H           30.0870     3.0183    22.9756 H             1 Compound   0.038700
      24 H           30.6365     4.6948    22.9691 H             1 Compound   0.038700
      25 H           30.0810     2.9970    20.4431 H             1 Compound   0.036700
      26 H           30.6378     4.6706    20.4228 H             1 Compound   0.036700
      27 H           28.0131     3.7186    24.2250 H             1 Compound   0.038200
      28 H           28.6083     5.3742    24.2786 H             1 Compound   0.038200
      29 H           28.0253     3.6681    19.1654 H             1 Compound   0.025700
      30 H           28.5917     5.3386    19.1358 H             1 Compound   0.025700
      31 H           28.8520     7.5276    29.8147 H             1 Compound   0.039200
      32 H           27.8479     6.1581    29.3368 H             1 Compound   0.039200
      33 H           29.9094     6.0962    31.6060 H             1 Compound   0.038700
      34 H           28.8294     4.7760    31.1827 H             1 Compound   0.038700
      35 H           30.9113     6.1891    29.3087 H             1 Compound   0.040200
      36 H           29.9071     4.8147    28.8495 H             1 Compound   0.040200
      37 H           30.0411     2.9509    25.5015 H             1 Compound   0.043700
      38 H           29.0193     4.0520    26.3883 H             1 Compound   0.043700
      39 H           30.6398     4.6210    17.8749 H             1 Compound   0.043700
      40 H           30.0734     2.9506    17.9023 H             1 Compound   0.043700
      41 H           27.9183     7.5401    32.1672 H             1 Compound   0.037200
      42 H           28.1058     6.1229    33.1886 H             1 Compound   0.037200
      43 H           28.8672     6.2016    27.0250 H             1 Compound   0.045200
      44 H           29.8855     7.5541    27.4704 H             1 Compound   0.045200
      45 H           31.7827     4.6381    25.1688 H             1 Compound   0.128000
      46 H           26.1257     6.3733    30.8581 H             1 Compound   0.040700
      47 H           26.3782     4.9049    31.8011 H             1 Compound   0.040700
      48 H           31.8958     6.4967    26.6417 H             1 Compound   0.119000
      49 H           28.6124     5.2948    16.5610 H             1 Compound   0.018700
      50 H           28.0119     3.6416    16.6308 H             1 Compound   0.018700
      51 H           25.4259     7.5972    32.9332 H             1 Compound   0.031033
      52 H           25.6643     6.1163    33.8803 H             1 Compound   0.031033
      53 H           24.4075     6.1793    32.6354 H             1 Compound   0.031033
@<TRIPOS>BOND
       1        1       20 1
       2        2       20 1
       3        3        4 1
       4        3        5 1
       5        3       21 1
       6        3       22 1
       7        4        6 1
       8        4       23 1
       9        4       24 1
      10        5        7 1
      11        5       25 1
      12        5       26 1
      13        6       11 1
      14        6       27 1
      15        6       28 1
      16        7       12 1
      17        7       29 1
      18        7       30 1
      19        8        9 1
      20        8       10 1
      21        8       31 1
      22        8       32 1
      23        9       13 1
      24        9       33 1
      25        9       34 1
      26       10       14 1
      27       10       35 1
      28       10       36 1
      29       11       15 1
      30       11       37 1
      31       11       38 1
      32       12       18 1
      33       12       39 1
      34       12       40 1
      35       13       16 1
      36       13       41 1
      37       13       42 1
      38       14       17 1
      39       14       43 1
      40       14       44 1
      41       15       17 1
      42       15       45 1
      43       16       19 1
      44       16       46 1
      45       16       47 1
      46       17       48 1
      47       18       20 1
      48       18       49 1
      49       18       50 1
      50       19       51 1
      51       19       52 1
      52       19       53 1
@<TRIPOS>SUBSTRUCTURE
       1 Compound        1 RESIDUE    0 **** ROOT      0
