@<TRIPOS>MOLECULE
Compound
53 52 1 0 1
SMALL
USER_CHARGES
@<TRIPOS>CRYSIN
   12.1453    10.9560    24.5934    90.0000    90.0000    90.0000 1 1
@<TRIPOS>ATOM
       1 O           22.2506    23.1235    14.2869 O             1 Compound  -0.853800
       2 O           20.3569    23.7171    15.2586 O             1 Compound  -0.853800
       3 C           22.0938    22.6772    21.7016 C             1 Compound  -0.079400
       4 C           21.4074    23.2140    22.9757 C             1 Compound  -0.080400
       5 C           21.4171    23.2314    20.4307 C             1 Compound  -0.078400
       6 C           22.0938    22.6772    24.2517 C             1 Compound  -0.076400
       7 C           22.1048    22.7064    19.1536 C             1 Compound  -0.078400
       8 C           21.4787    20.6562    29.7773 C             1 Compound  -0.079400
       9 C           21.5700    21.2308    31.2094 C             1 Compound  -0.078400
      10 C           20.5894    21.5437    28.8807 C             1 Compound  -0.077400
      11 C           21.4740    23.2622    25.5396 C             1 Compound  -0.050200
      12 C           21.4336    23.2735    17.8845 C             1 Compound  -0.065400
      13 C           22.3634    20.3213    32.1750 C             1 Compound  -0.077400
      14 C           20.4988    20.9856    27.4465 C             1 Compound  -0.045200
      15 C           20.0384    22.8121    25.7427 C             1 Compound  -0.159200
      16 C           23.8707    20.2540    31.8389 C             1 Compound  -0.081400
      17 C           19.6210    21.8638    26.5770 C             1 Compound  -0.190200
      18 C           22.1198    22.7525    16.6025 C             1 Compound  -0.194400
      19 C           24.6394    19.4321    32.8896 C             1 Compound  -0.092100
      20 C           21.5062    23.3299    15.3403 C             1 Compound   0.907600
      21 H           22.0474    21.5852    21.6946 H             1 Compound   0.034200
      22 H           23.1486    22.9636    21.7082 H             1 Compound   0.034200
      23 H           21.4452    24.3059    22.9756 H             1 Compound   0.038700
      24 H           20.3555    22.9184    22.9691 H             1 Compound   0.038700
      25 H           21.4582    24.3239    20.4431 H             1 Compound   0.036700
      26 H           20.3626    22.9416    20.4228 H             1 Compound   0.036700
      27 H           23.1545    22.9385    24.2250 H             1 Compound   0.038200
      28 H           22.0290    21.5863    24.2786 H             1 Compound   0.038200
      29 H           23.1603    22.9901    19.1654 H             1 Compound   0.025700
      30 H           22.0568    21.6141    19.1358 H             1 Compound   0.025700
      31 H           21.0635    19.6461    29.8147 H             1 Compound   0.039200
      32 H           22.4754    20.5896    29.3368 H             1 Compound   0.039200
      33 H           20.5594    21.3528    31.6060 H             1 Compound   0.038700
      34 H           22.0258    22.2240    31.1827 H             1 Compound   0.038700
      35 H           19.5861    21.6082    29.3087 H             1 Compound   0.040200
      36 H           20.9999    22.5562    28.8495 H             1 Compound   0.040200
      37 H           21.5114    24.3535    25.5015 H             1 Compound   0.043700
      38 H           22.0950    22.9693    26.3883 H             1 Compound   0.043700
      39 H           20.3776    22.9889    17.8749 H             1 Compound   0.043700
      40 H           21.4811    24.3649    17.9023 H             1 Compound   0.043700
      41 H           21.9366    19.3150    32.1672 H             1 Compound   0.037200
      42 H           22.2451    20.7109    33.1886 H             1 Compound   0.037200
      43 H           21.5027    20.8973    27.0250 H             1 Compound   0.045200
      44 H           20.0832    19.9747    27.4704 H             1 Compound   0.045200
      45 H           19.2978    23.3637    25.1688 H             1 Compound   0.128000
      46 H           24.0201    19.7983    30.8581 H             1 Compound   0.040700
      47 H           24.2851    21.2645    31.8011 H             1 Compound   0.040700
      48 H           18.5558    21.6558    26.6417 H             1 Compound   0.119000
      49 H           22.0523    21.6623    16.5610 H             1 Compound   0.018700
      50 H           23.1820    23.0104    16.6308 H             1 Compound   0.018700
      51 H           24.2592    18.4089    32.9332 H             1 Compound   0.031033
      52 H           24.5416    19.8820    33.8803 H             1 Compound   0.031033
      53 H           25.7011    19.3930    32.6354 H             1 Compound   0.031033
@<TRIPOS>BOND
       1        1       20 1
       2        2       20 1
       3        3        4 1
       4        3        5 1
       5        3       21 1
       6        3       22 1
       7        4        6 1
       8        4       23 1
       9        4       24 1
      10        5        7 1
      11        5       25 1
      12        5       26 1
      13        6       11 1
      14        6       27 1
      15        6       28 1
      16        7       12 1
      17        7       29 1
      18        7       30 1
      19        8        9 1
      20        8       10 1
      21        8       31 1
      22        8       32 1
      23        9       13 1
      24        9       33 1
      25        9       34 1
      26       10       14 1
      27       10       35 1
      28       10       36 1
      29       11       15 1
      30       11       37 1
      31       11       38 1
      32       12       18 1
      33       12       39 1
      34       12       40 1
      35       13       16 1
      36       13       41 1
      37       13       42 1
      38       14       17 1
      39       14       43 1
      40       14       44 1
      41       15       17 1
      42       15       45 1
      43       16       19 1
      44       16       46 1
      45       16       47 1
      46       17       48 1
      47       18       20 1
      48       18       49 1
      49       18       50 1
      50       19       51 1
      51       19       52 1
      52       19       53 1
@<TRIPOS>SUBSTRUCTURE
       1 Compound        1 RESIDUE    0 **** ROOT      0
