@<TRIPOS>MOLECULE
Compound
53 52 1 0 1
SMALL
NO_CHARGES
@<TRIPOS>CRYSIN
   12.1453    10.9560    24.5934    90.0000    90.0000    90.0000 1 1
@<TRIPOS>ATOM
       1 O           18.9130    25.0505    14.2869 O             1 Compound
       2 O           17.0193    25.6441    15.2586 O             1 Compound
       3 C           18.7562    24.6042    21.7016 C             1 Compound
       4 C           18.0698    25.1410    22.9757 C             1 Compound
       5 C           18.0795    25.1584    20.4307 C             1 Compound
       6 C           18.7562    24.6042    24.2517 C             1 Compound
       7 C           18.7672    24.6334    19.1536 C             1 Compound
       8 C           18.1411    22.5832    29.7773 C             1 Compound
       9 C           18.2324    23.1578    31.2094 C             1 Compound
      10 C           17.2518    23.4707    28.8807 C             1 Compound
      11 C           18.1364    25.1892    25.5396 C             1 Compound
      12 C           18.0960    25.2005    17.8845 C             1 Compound
      13 C           19.0258    22.2483    32.1750 C             1 Compound
      14 C           17.1612    22.9126    27.4465 C             1 Compound
      15 C           16.7008    24.7391    25.7427 C             1 Compound
      16 C           20.5331    22.1810    31.8389 C             1 Compound
      17 C           16.2834    23.7908    26.5770 C             1 Compound
      18 C           18.7822    24.6795    16.6025 C             1 Compound
      19 C           21.3018    21.3591    32.8896 C             1 Compound
      20 C           18.1686    25.2569    15.3403 C             1 Compound
      21 H           18.7098    23.5122    21.6946 H             1 Compound
      22 H           19.8110    24.8906    21.7082 H             1 Compound
      23 H           18.1076    26.2329    22.9756 H             1 Compound
      24 H           17.0179    24.8454    22.9691 H             1 Compound
      25 H           18.1206    26.2509    20.4431 H             1 Compound
      26 H           17.0250    24.8686    20.4228 H             1 Compound
      27 H           19.8169    24.8655    24.2250 H             1 Compound
      28 H           18.6914    23.5133    24.2786 H             1 Compound
      29 H           19.8227    24.9171    19.1654 H             1 Compound
      30 H           18.7192    23.5411    19.1358 H             1 Compound
      31 H           17.7259    21.5731    29.8147 H             1 Compound
      32 H           19.1378    22.5166    29.3368 H             1 Compound
      33 H           17.2218    23.2798    31.6060 H             1 Compound
      34 H           18.6882    24.1510    31.1827 H             1 Compound
      35 H           16.2485    23.5352    29.3087 H             1 Compound
      36 H           17.6623    24.4832    28.8495 H             1 Compound
      37 H           18.1738    26.2805    25.5015 H             1 Compound
      38 H           18.7574    24.8963    26.3883 H             1 Compound
      39 H           17.0400    24.9159    17.8749 H             1 Compound
      40 H           18.1435    26.2919    17.9023 H             1 Compound
      41 H           18.5990    21.2420    32.1672 H             1 Compound
      42 H           18.9075    22.6379    33.1886 H             1 Compound
      43 H           18.1651    22.8243    27.0250 H             1 Compound
      44 H           16.7456    21.9017    27.4704 H             1 Compound
      45 H           15.9602    25.2907    25.1688 H             1 Compound
      46 H           20.6825    21.7253    30.8581 H             1 Compound
      47 H           20.9475    23.1915    31.8011 H             1 Compound
      48 H           15.2182    23.5828    26.6417 H             1 Compound
      49 H           18.7147    23.5893    16.5610 H             1 Compound
      50 H           19.8444    24.9374    16.6308 H             1 Compound
      51 H           20.9216    20.3359    32.9332 H             1 Compound
      52 H           21.2040    21.8090    33.8803 H             1 Compound
      53 H           22.3635    21.3200    32.6354 H             1 Compound
@<TRIPOS>BOND
       1        1       20 1
       2        2       20 1
       3        3        4 1
       4        3        5 1
       5        3       21 1
       6        3       22 1
       7        4        6 1
       8        4       23 1
       9        4       24 1
      10        5        7 1
      11        5       25 1
      12        5       26 1
      13        6       11 1
      14        6       27 1
      15        6       28 1
      16        7       12 1
      17        7       29 1
      18        7       30 1
      19        8        9 1
      20        8       10 1
      21        8       31 1
      22        8       32 1
      23        9       13 1
      24        9       33 1
      25        9       34 1
      26       10       14 1
      27       10       35 1
      28       10       36 1
      29       11       15 1
      30       11       37 1
      31       11       38 1
      32       12       18 1
      33       12       39 1
      34       12       40 1
      35       13       16 1
      36       13       41 1
      37       13       42 1
      38       14       17 1
      39       14       43 1
      40       14       44 1
      41       15       17 1
      42       15       45 1
      43       16       19 1
      44       16       46 1
      45       16       47 1
      46       17       48 1
      47       18       20 1
      48       18       49 1
      49       18       50 1
      50       19       51 1
      51       19       52 1
      52       19       53 1
@<TRIPOS>SUBSTRUCTURE
       1 Compound        1 RESIDUE    0 **** ROOT      0
