@<TRIPOS>MOLECULE
Compound
53 52 1 0 1
SMALL
NO_CHARGES
@<TRIPOS>CRYSIN
   12.1453    10.9560    24.5934    90.0000    90.0000    90.0000 1 1
@<TRIPOS>ATOM
       1 O            8.9002    34.6853    14.2869 O             1 Compound
       2 O            7.0065    35.2789    15.2586 O             1 Compound
       3 C            8.7434    34.2390    21.7016 C             1 Compound
       4 C            8.0570    34.7758    22.9757 C             1 Compound
       5 C            8.0667    34.7932    20.4307 C             1 Compound
       6 C            8.7434    34.2390    24.2517 C             1 Compound
       7 C            8.7544    34.2682    19.1536 C             1 Compound
       8 C            8.1283    32.2180    29.7773 C             1 Compound
       9 C            8.2196    32.7926    31.2094 C             1 Compound
      10 C            7.2390    33.1055    28.8807 C             1 Compound
      11 C            8.1236    34.8240    25.5396 C             1 Compound
      12 C            8.0832    34.8353    17.8845 C             1 Compound
      13 C            9.0131    31.8831    32.1750 C             1 Compound
      14 C            7.1484    32.5474    27.4465 C             1 Compound
      15 C            6.6880    34.3739    25.7427 C             1 Compound
      16 C           10.5203    31.8158    31.8389 C             1 Compound
      17 C            6.2706    33.4256    26.5770 C             1 Compound
      18 C            8.7694    34.3143    16.6025 C             1 Compound
      19 C           11.2890    30.9939    32.8896 C             1 Compound
      20 C            8.1558    34.8917    15.3403 C             1 Compound
      21 H            8.6970    33.1470    21.6946 H             1 Compound
      22 H            9.7982    34.5254    21.7082 H             1 Compound
      23 H            8.0948    35.8677    22.9756 H             1 Compound
      24 H            7.0051    34.4802    22.9691 H             1 Compound
      25 H            8.1078    35.8857    20.4431 H             1 Compound
      26 H            7.0122    34.5034    20.4228 H             1 Compound
      27 H            9.8041    34.5003    24.2250 H             1 Compound
      28 H            8.6786    33.1481    24.2786 H             1 Compound
      29 H            9.8099    34.5519    19.1654 H             1 Compound
      30 H            8.7064    33.1759    19.1358 H             1 Compound
      31 H            7.7131    31.2079    29.8147 H             1 Compound
      32 H            9.1250    32.1514    29.3368 H             1 Compound
      33 H            7.2090    32.9146    31.6060 H             1 Compound
      34 H            8.6754    33.7858    31.1827 H             1 Compound
      35 H            6.2357    33.1700    29.3087 H             1 Compound
      36 H            7.6495    34.1180    28.8495 H             1 Compound
      37 H            8.1610    35.9153    25.5015 H             1 Compound
      38 H            8.7446    34.5311    26.3883 H             1 Compound
      39 H            7.0272    34.5507    17.8749 H             1 Compound
      40 H            8.1307    35.9267    17.9023 H             1 Compound
      41 H            8.5862    30.8768    32.1672 H             1 Compound
      42 H            8.8947    32.2727    33.1886 H             1 Compound
      43 H            8.1523    32.4591    27.0250 H             1 Compound
      44 H            6.7328    31.5365    27.4704 H             1 Compound
      45 H            5.9474    34.9255    25.1688 H             1 Compound
      46 H           10.6697    31.3601    30.8581 H             1 Compound
      47 H           10.9347    32.8263    31.8011 H             1 Compound
      48 H            5.2054    33.2176    26.6417 H             1 Compound
      49 H            8.7019    33.2241    16.5610 H             1 Compound
      50 H            9.8316    34.5722    16.6308 H             1 Compound
      51 H           10.9088    29.9707    32.9332 H             1 Compound
      52 H           11.1912    31.4438    33.8803 H             1 Compound
      53 H           12.3507    30.9548    32.6354 H             1 Compound
@<TRIPOS>BOND
       1        1       20 1
       2        2       20 1
       3        3        4 1
       4        3        5 1
       5        3       21 1
       6        3       22 1
       7        4        6 1
       8        4       23 1
       9        4       24 1
      10        5        7 1
      11        5       25 1
      12        5       26 1
      13        6       11 1
      14        6       27 1
      15        6       28 1
      16        7       12 1
      17        7       29 1
      18        7       30 1
      19        8        9 1
      20        8       10 1
      21        8       31 1
      22        8       32 1
      23        9       13 1
      24        9       33 1
      25        9       34 1
      26       10       14 1
      27       10       35 1
      28       10       36 1
      29       11       15 1
      30       11       37 1
      31       11       38 1
      32       12       18 1
      33       12       39 1
      34       12       40 1
      35       13       16 1
      36       13       41 1
      37       13       42 1
      38       14       17 1
      39       14       43 1
      40       14       44 1
      41       15       17 1
      42       15       45 1
      43       16       19 1
      44       16       46 1
      45       16       47 1
      46       17       48 1
      47       18       20 1
      48       18       49 1
      49       18       50 1
      50       19       51 1
      51       19       52 1
      52       19       53 1
@<TRIPOS>SUBSTRUCTURE
       1 Compound        1 RESIDUE    0 **** ROOT      0
