@<TRIPOS>MOLECULE
Compound
53 52 1 0 1
SMALL
USER_CHARGES
@<TRIPOS>CRYSIN
   12.1453    10.9560    24.5934    90.0000    90.0000    90.0000 1 1
@<TRIPOS>ATOM
       1 O           12.2378    25.0505    14.2869 O             1 Compound  -0.853800
       2 O           10.3441    25.6441    15.2586 O             1 Compound  -0.853800
       3 C           12.0810    24.6042    21.7016 C             1 Compound  -0.079400
       4 C           11.3946    25.1410    22.9757 C             1 Compound  -0.080400
       5 C           11.4043    25.1584    20.4307 C             1 Compound  -0.078400
       6 C           12.0810    24.6042    24.2517 C             1 Compound  -0.076400
       7 C           12.0920    24.6334    19.1536 C             1 Compound  -0.078400
       8 C           11.4659    22.5832    29.7773 C             1 Compound  -0.079400
       9 C           11.5572    23.1578    31.2094 C             1 Compound  -0.078400
      10 C           10.5766    23.4707    28.8807 C             1 Compound  -0.077400
      11 C           11.4612    25.1892    25.5396 C             1 Compound  -0.050200
      12 C           11.4208    25.2005    17.8845 C             1 Compound  -0.065400
      13 C           12.3507    22.2483    32.1750 C             1 Compound  -0.077400
      14 C           10.4860    22.9126    27.4465 C             1 Compound  -0.045200
      15 C           10.0256    24.7391    25.7427 C             1 Compound  -0.159200
      16 C           13.8579    22.1810    31.8389 C             1 Compound  -0.081400
      17 C            9.6082    23.7908    26.5770 C             1 Compound  -0.190200
      18 C           12.1070    24.6795    16.6025 C             1 Compound  -0.194400
      19 C           14.6266    21.3591    32.8896 C             1 Compound  -0.092100
      20 C           11.4934    25.2569    15.3403 C             1 Compound   0.907600
      21 H           12.0346    23.5122    21.6946 H             1 Compound   0.034200
      22 H           13.1358    24.8906    21.7082 H             1 Compound   0.034200
      23 H           11.4324    26.2329    22.9756 H             1 Compound   0.038700
      24 H           10.3427    24.8454    22.9691 H             1 Compound   0.038700
      25 H           11.4454    26.2509    20.4431 H             1 Compound   0.036700
      26 H           10.3498    24.8686    20.4228 H             1 Compound   0.036700
      27 H           13.1417    24.8655    24.2250 H             1 Compound   0.038200
      28 H           12.0162    23.5133    24.2786 H             1 Compound   0.038200
      29 H           13.1475    24.9171    19.1654 H             1 Compound   0.025700
      30 H           12.0440    23.5411    19.1358 H             1 Compound   0.025700
      31 H           11.0507    21.5731    29.8147 H             1 Compound   0.039200
      32 H           12.4626    22.5166    29.3368 H             1 Compound   0.039200
      33 H           10.5466    23.2798    31.6060 H             1 Compound   0.038700
      34 H           12.0130    24.1510    31.1827 H             1 Compound   0.038700
      35 H            9.5733    23.5352    29.3087 H             1 Compound   0.040200
      36 H           10.9871    24.4832    28.8495 H             1 Compound   0.040200
      37 H           11.4986    26.2805    25.5015 H             1 Compound   0.043700
      38 H           12.0822    24.8963    26.3883 H             1 Compound   0.043700
      39 H           10.3648    24.9159    17.8749 H             1 Compound   0.043700
      40 H           11.4683    26.2919    17.9023 H             1 Compound   0.043700
      41 H           11.9238    21.2420    32.1672 H             1 Compound   0.037200
      42 H           12.2323    22.6379    33.1886 H             1 Compound   0.037200
      43 H           11.4899    22.8243    27.0250 H             1 Compound   0.045200
      44 H           10.0704    21.9017    27.4704 H             1 Compound   0.045200
      45 H            9.2850    25.2907    25.1688 H             1 Compound   0.128000
      46 H           14.0073    21.7253    30.8581 H             1 Compound   0.040700
      47 H           14.2723    23.1915    31.8011 H             1 Compound   0.040700
      48 H            8.5430    23.5828    26.6417 H             1 Compound   0.119000
      49 H           12.0395    23.5893    16.5610 H             1 Compound   0.018700
      50 H           13.1692    24.9374    16.6308 H             1 Compound   0.018700
      51 H           14.2464    20.3359    32.9332 H             1 Compound   0.031033
      52 H           14.5288    21.8090    33.8803 H             1 Compound   0.031033
      53 H           15.6883    21.3200    32.6354 H             1 Compound   0.031033
@<TRIPOS>BOND
       1        1       20 1
       2        2       20 1
       3        3        4 1
       4        3        5 1
       5        3       21 1
       6        3       22 1
       7        4        6 1
       8        4       23 1
       9        4       24 1
      10        5        7 1
      11        5       25 1
      12        5       26 1
      13        6       11 1
      14        6       27 1
      15        6       28 1
      16        7       12 1
      17        7       29 1
      18        7       30 1
      19        8        9 1
      20        8       10 1
      21        8       31 1
      22        8       32 1
      23        9       13 1
      24        9       33 1
      25        9       34 1
      26       10       14 1
      27       10       35 1
      28       10       36 1
      29       11       15 1
      30       11       37 1
      31       11       38 1
      32       12       18 1
      33       12       39 1
      34       12       40 1
      35       13       16 1
      36       13       41 1
      37       13       42 1
      38       14       17 1
      39       14       43 1
      40       14       44 1
      41       15       17 1
      42       15       45 1
      43       16       19 1
      44       16       46 1
      45       16       47 1
      46       17       48 1
      47       18       20 1
      48       18       49 1
      49       18       50 1
      50       19       51 1
      51       19       52 1
      52       19       53 1
@<TRIPOS>SUBSTRUCTURE
       1 Compound        1 RESIDUE    0 **** ROOT      0
