@<TRIPOS>MOLECULE
Compound
53 52 1 0 1
SMALL
NO_CHARGES
@<TRIPOS>CRYSIN
   12.1453    10.9560    24.5934    90.0000    90.0000    90.0000 1 1
@<TRIPOS>ATOM
       1 O           12.2378    32.7583    14.2869 O             1 Compound
       2 O           10.3441    33.3519    15.2586 O             1 Compound
       3 C           12.0810    32.3120    21.7016 C             1 Compound
       4 C           11.3946    32.8488    22.9757 C             1 Compound
       5 C           11.4043    32.8662    20.4307 C             1 Compound
       6 C           12.0810    32.3120    24.2517 C             1 Compound
       7 C           12.0920    32.3412    19.1536 C             1 Compound
       8 C           11.4659    30.2910    29.7773 C             1 Compound
       9 C           11.5572    30.8656    31.2094 C             1 Compound
      10 C           10.5766    31.1785    28.8807 C             1 Compound
      11 C           11.4612    32.8970    25.5396 C             1 Compound
      12 C           11.4208    32.9083    17.8845 C             1 Compound
      13 C           12.3507    29.9561    32.1750 C             1 Compound
      14 C           10.4860    30.6204    27.4465 C             1 Compound
      15 C           10.0256    32.4469    25.7427 C             1 Compound
      16 C           13.8579    29.8888    31.8389 C             1 Compound
      17 C            9.6082    31.4986    26.5770 C             1 Compound
      18 C           12.1070    32.3873    16.6025 C             1 Compound
      19 C           14.6266    29.0669    32.8896 C             1 Compound
      20 C           11.4934    32.9647    15.3403 C             1 Compound
      21 H           12.0346    31.2200    21.6946 H             1 Compound
      22 H           13.1358    32.5984    21.7082 H             1 Compound
      23 H           11.4324    33.9407    22.9756 H             1 Compound
      24 H           10.3427    32.5532    22.9691 H             1 Compound
      25 H           11.4454    33.9587    20.4431 H             1 Compound
      26 H           10.3498    32.5764    20.4228 H             1 Compound
      27 H           13.1417    32.5733    24.2250 H             1 Compound
      28 H           12.0162    31.2211    24.2786 H             1 Compound
      29 H           13.1475    32.6249    19.1654 H             1 Compound
      30 H           12.0440    31.2489    19.1358 H             1 Compound
      31 H           11.0507    29.2809    29.8147 H             1 Compound
      32 H           12.4626    30.2244    29.3368 H             1 Compound
      33 H           10.5466    30.9876    31.6060 H             1 Compound
      34 H           12.0130    31.8588    31.1827 H             1 Compound
      35 H            9.5733    31.2430    29.3087 H             1 Compound
      36 H           10.9871    32.1910    28.8495 H             1 Compound
      37 H           11.4986    33.9883    25.5015 H             1 Compound
      38 H           12.0822    32.6041    26.3883 H             1 Compound
      39 H           10.3648    32.6237    17.8749 H             1 Compound
      40 H           11.4683    33.9997    17.9023 H             1 Compound
      41 H           11.9238    28.9498    32.1672 H             1 Compound
      42 H           12.2323    30.3457    33.1886 H             1 Compound
      43 H           11.4899    30.5321    27.0250 H             1 Compound
      44 H           10.0704    29.6095    27.4704 H             1 Compound
      45 H            9.2850    32.9985    25.1688 H             1 Compound
      46 H           14.0073    29.4331    30.8581 H             1 Compound
      47 H           14.2723    30.8993    31.8011 H             1 Compound
      48 H            8.5430    31.2906    26.6417 H             1 Compound
      49 H           12.0395    31.2971    16.5610 H             1 Compound
      50 H           13.1692    32.6452    16.6308 H             1 Compound
      51 H           14.2464    28.0437    32.9332 H             1 Compound
      52 H           14.5288    29.5168    33.8803 H             1 Compound
      53 H           15.6883    29.0278    32.6354 H             1 Compound
@<TRIPOS>BOND
       1        1       20 1
       2        2       20 1
       3        3        4 1
       4        3        5 1
       5        3       21 1
       6        3       22 1
       7        4        6 1
       8        4       23 1
       9        4       24 1
      10        5        7 1
      11        5       25 1
      12        5       26 1
      13        6       11 1
      14        6       27 1
      15        6       28 1
      16        7       12 1
      17        7       29 1
      18        7       30 1
      19        8        9 1
      20        8       10 1
      21        8       31 1
      22        8       32 1
      23        9       13 1
      24        9       33 1
      25        9       34 1
      26       10       14 1
      27       10       35 1
      28       10       36 1
      29       11       15 1
      30       11       37 1
      31       11       38 1
      32       12       18 1
      33       12       39 1
      34       12       40 1
      35       13       16 1
      36       13       41 1
      37       13       42 1
      38       14       17 1
      39       14       43 1
      40       14       44 1
      41       15       17 1
      42       15       45 1
      43       16       19 1
      44       16       46 1
      45       16       47 1
      46       17       48 1
      47       18       20 1
      48       18       49 1
      49       18       50 1
      50       19       51 1
      51       19       52 1
      52       19       53 1
@<TRIPOS>SUBSTRUCTURE
       1 Compound        1 RESIDUE    0 **** ROOT      0
