@<TRIPOS>MOLECULE
Compound
53 52 1 0 1
SMALL
NO_CHARGES
@<TRIPOS>CRYSIN
   12.4883     9.6466    24.5934    90.0000    90.0000    90.0000 1 1
@<TRIPOS>ATOM
       1 O            5.5627    28.9044    14.2869 O             1 Compound
       2 O            3.5802    28.8145    15.2586 O             1 Compound
       3 C            5.5679    28.4314    21.7016 C             1 Compound
       4 C            4.7394    28.7010    22.9757 C             1 Compound
       5 C            4.7426    28.7208    20.4307 C             1 Compound
       6 C            5.5679    28.4314    24.2517 C             1 Compound
       7 C            5.5683    28.4626    19.1536 C             1 Compound
       8 C            5.6812    26.3219    29.7773 C             1 Compound
       9 C            5.5705    26.8931    31.2094 C             1 Compound
      10 C            4.5420    26.8517    28.8807 C             1 Compound
      11 C            4.7855    28.7691    25.5396 C             1 Compound
      12 C            4.7437    28.7659    17.8845 C             1 Compound
      13 C            6.6272    26.3098    32.1750 C             1 Compound
      14 C            4.6478    26.2963    27.4465 C             1 Compound
      15 C            3.5904    27.8552    25.7427 C             1 Compound
      16 C            8.0665    26.7620    31.8389 C             1 Compound
      17 C            3.5225    26.8213    26.5770 C             1 Compound
      18 C            5.5667    28.5111    16.6025 C             1 Compound
      19 C            9.0700    26.2526    32.8896 C             1 Compound
      20 C            4.7926    28.8438    15.3403 C             1 Compound
      21 H            5.8979    27.3894    21.6946 H             1 Compound
      22 H            6.4612    29.0612    21.7082 H             1 Compound
      23 H            4.4015    29.7400    22.9756 H             1 Compound
      24 H            3.8520    28.0635    22.9691 H             1 Compound
      25 H            4.4075    29.7613    20.4431 H             1 Compound
      26 H            3.8507    28.0877    20.4228 H             1 Compound
      27 H            6.4754    29.0397    24.2250 H             1 Compound
      28 H            5.8802    27.3841    24.2786 H             1 Compound
      29 H            6.4632    29.0902    19.1654 H             1 Compound
      30 H            5.8968    27.4197    19.1358 H             1 Compound
      31 H            5.6365    25.2307    29.8147 H             1 Compound
      32 H            6.6406    26.6002    29.3368 H             1 Compound
      33 H            4.5791    26.6621    31.6060 H             1 Compound
      34 H            5.6591    27.9823    31.1827 H             1 Compound
      35 H            3.5772    26.5692    29.3087 H             1 Compound
      36 H            4.5814    27.9436    28.8495 H             1 Compound
      37 H            4.4474    29.8074    25.5015 H             1 Compound
      38 H            5.4692    28.7063    26.3883 H             1 Compound
      39 H            3.8487    28.1373    17.8749 H             1 Compound
      40 H            4.4151    29.8077    17.9023 H             1 Compound
      41 H            6.5702    25.2182    32.1672 H             1 Compound
      42 H            6.3827    26.6354    33.1886 H             1 Compound
      43 H            5.6213    26.5567    27.0250 H             1 Compound
      44 H            4.6030    25.2042    27.4704 H             1 Compound
      45 H            2.7058    28.1202    25.1688 H             1 Compound
      46 H            8.3628    26.3850    30.8581 H             1 Compound
      47 H            8.1103    27.8534    31.8011 H             1 Compound
      48 H            2.5927    26.2616    26.6417 H             1 Compound
      49 H            5.8761    27.4635    16.5610 H             1 Compound
      50 H            6.4766    29.1167    16.6308 H             1 Compound
      51 H            9.0626    25.1611    32.9332 H             1 Compound
      52 H            8.8242    26.6420    33.8803 H             1 Compound
      53 H           10.0810    26.5790    32.6354 H             1 Compound
@<TRIPOS>BOND
       1        1       20 1
       2        2       20 1
       3        3        4 1
       4        3        5 1
       5        3       21 1
       6        3       22 1
       7        4        6 1
       8        4       23 1
       9        4       24 1
      10        5        7 1
      11        5       25 1
      12        5       26 1
      13        6       11 1
      14        6       27 1
      15        6       28 1
      16        7       12 1
      17        7       29 1
      18        7       30 1
      19        8        9 1
      20        8       10 1
      21        8       31 1
      22        8       32 1
      23        9       13 1
      24        9       33 1
      25        9       34 1
      26       10       14 1
      27       10       35 1
      28       10       36 1
      29       11       15 1
      30       11       37 1
      31       11       38 1
      32       12       18 1
      33       12       39 1
      34       12       40 1
      35       13       16 1
      36       13       41 1
      37       13       42 1
      38       14       17 1
      39       14       43 1
      40       14       44 1
      41       15       17 1
      42       15       45 1
      43       16       19 1
      44       16       46 1
      45       16       47 1
      46       17       48 1
      47       18       20 1
      48       18       49 1
      49       18       50 1
      50       19       51 1
      51       19       52 1
      52       19       53 1
@<TRIPOS>SUBSTRUCTURE
       1 Compound        1 RESIDUE    0 **** ROOT      0
