@<TRIPOS>MOLECULE
Compound
53 52 1 0 1
SMALL
USER_CHARGES
@<TRIPOS>CRYSIN
   12.1453    10.9560    24.5934    90.0000    90.0000    90.0000 1 1
@<TRIPOS>ATOM
       1 O            8.9002    11.5618    14.2869 O             1 Compound  -0.853800
       2 O            7.0065    12.1554    15.2586 O             1 Compound  -0.853800
       3 C            8.7434    11.1155    21.7016 C             1 Compound  -0.079400
       4 C            8.0570    11.6523    22.9757 C             1 Compound  -0.080400
       5 C            8.0667    11.6697    20.4307 C             1 Compound  -0.078400
       6 C            8.7434    11.1155    24.2517 C             1 Compound  -0.076400
       7 C            8.7544    11.1447    19.1536 C             1 Compound  -0.078400
       8 C            8.1283     9.0945    29.7773 C             1 Compound  -0.079400
       9 C            8.2196     9.6691    31.2094 C             1 Compound  -0.078400
      10 C            7.2390     9.9820    28.8807 C             1 Compound  -0.077400
      11 C            8.1236    11.7005    25.5396 C             1 Compound  -0.050200
      12 C            8.0832    11.7118    17.8845 C             1 Compound  -0.065400
      13 C            9.0131     8.7596    32.1750 C             1 Compound  -0.077400
      14 C            7.1484     9.4239    27.4465 C             1 Compound  -0.045200
      15 C            6.6880    11.2504    25.7427 C             1 Compound  -0.159200
      16 C           10.5203     8.6923    31.8389 C             1 Compound  -0.081400
      17 C            6.2706    10.3021    26.5770 C             1 Compound  -0.190200
      18 C            8.7694    11.1908    16.6025 C             1 Compound  -0.194400
      19 C           11.2890     7.8704    32.8896 C             1 Compound  -0.092100
      20 C            8.1558    11.7682    15.3403 C             1 Compound   0.907600
      21 H            8.6970    10.0235    21.6946 H             1 Compound   0.034200
      22 H            9.7982    11.4019    21.7082 H             1 Compound   0.034200
      23 H            8.0948    12.7442    22.9756 H             1 Compound   0.038700
      24 H            7.0051    11.3567    22.9691 H             1 Compound   0.038700
      25 H            8.1078    12.7622    20.4431 H             1 Compound   0.036700
      26 H            7.0122    11.3799    20.4228 H             1 Compound   0.036700
      27 H            9.8041    11.3768    24.2250 H             1 Compound   0.038200
      28 H            8.6786    10.0246    24.2786 H             1 Compound   0.038200
      29 H            9.8099    11.4284    19.1654 H             1 Compound   0.025700
      30 H            8.7064    10.0524    19.1358 H             1 Compound   0.025700
      31 H            7.7131     8.0844    29.8147 H             1 Compound   0.039200
      32 H            9.1250     9.0279    29.3368 H             1 Compound   0.039200
      33 H            7.2090     9.7911    31.6060 H             1 Compound   0.038700
      34 H            8.6754    10.6623    31.1827 H             1 Compound   0.038700
      35 H            6.2357    10.0465    29.3087 H             1 Compound   0.040200
      36 H            7.6495    10.9945    28.8495 H             1 Compound   0.040200
      37 H            8.1610    12.7918    25.5015 H             1 Compound   0.043700
      38 H            8.7446    11.4076    26.3883 H             1 Compound   0.043700
      39 H            7.0272    11.4272    17.8749 H             1 Compound   0.043700
      40 H            8.1307    12.8032    17.9023 H             1 Compound   0.043700
      41 H            8.5862     7.7533    32.1672 H             1 Compound   0.037200
      42 H            8.8947     9.1492    33.1886 H             1 Compound   0.037200
      43 H            8.1523     9.3356    27.0250 H             1 Compound   0.045200
      44 H            6.7328     8.4130    27.4704 H             1 Compound   0.045200
      45 H            5.9474    11.8020    25.1688 H             1 Compound   0.128000
      46 H           10.6697     8.2366    30.8581 H             1 Compound   0.040700
      47 H           10.9347     9.7028    31.8011 H             1 Compound   0.040700
      48 H            5.2054    10.0941    26.6417 H             1 Compound   0.119000
      49 H            8.7019    10.1006    16.5610 H             1 Compound   0.018700
      50 H            9.8316    11.4487    16.6308 H             1 Compound   0.018700
      51 H           10.9088     6.8472    32.9332 H             1 Compound   0.031033
      52 H           11.1912     8.3203    33.8803 H             1 Compound   0.031033
      53 H           12.3507     7.8313    32.6354 H             1 Compound   0.031033
@<TRIPOS>BOND
       1        1       20 1
       2        2       20 1
       3        3        4 1
       4        3        5 1
       5        3       21 1
       6        3       22 1
       7        4        6 1
       8        4       23 1
       9        4       24 1
      10        5        7 1
      11        5       25 1
      12        5       26 1
      13        6       11 1
      14        6       27 1
      15        6       28 1
      16        7       12 1
      17        7       29 1
      18        7       30 1
      19        8        9 1
      20        8       10 1
      21        8       31 1
      22        8       32 1
      23        9       13 1
      24        9       33 1
      25        9       34 1
      26       10       14 1
      27       10       35 1
      28       10       36 1
      29       11       15 1
      30       11       37 1
      31       11       38 1
      32       12       18 1
      33       12       39 1
      34       12       40 1
      35       13       16 1
      36       13       41 1
      37       13       42 1
      38       14       17 1
      39       14       43 1
      40       14       44 1
      41       15       17 1
      42       15       45 1
      43       16       19 1
      44       16       46 1
      45       16       47 1
      46       17       48 1
      47       18       20 1
      48       18       49 1
      49       18       50 1
      50       19       51 1
      51       19       52 1
      52       19       53 1
@<TRIPOS>SUBSTRUCTURE
       1 Compound        1 RESIDUE    0 **** ROOT      0
