@<TRIPOS>MOLECULE
Compound
53 52 1 0 1
SMALL
NO_CHARGES
@<TRIPOS>CRYSIN
   12.1453    10.9560    24.5934    90.0000    90.0000    90.0000 1 1
@<TRIPOS>ATOM
       1 O           22.2506    15.4157    14.2869 O             1 Compound
       2 O           20.3569    16.0093    15.2586 O             1 Compound
       3 C           22.0938    14.9694    21.7016 C             1 Compound
       4 C           21.4074    15.5062    22.9757 C             1 Compound
       5 C           21.4171    15.5236    20.4307 C             1 Compound
       6 C           22.0938    14.9694    24.2517 C             1 Compound
       7 C           22.1048    14.9986    19.1536 C             1 Compound
       8 C           21.4787    12.9484    29.7773 C             1 Compound
       9 C           21.5700    13.5230    31.2094 C             1 Compound
      10 C           20.5894    13.8359    28.8807 C             1 Compound
      11 C           21.4740    15.5544    25.5396 C             1 Compound
      12 C           21.4336    15.5657    17.8845 C             1 Compound
      13 C           22.3634    12.6135    32.1750 C             1 Compound
      14 C           20.4988    13.2778    27.4465 C             1 Compound
      15 C           20.0384    15.1043    25.7427 C             1 Compound
      16 C           23.8707    12.5462    31.8389 C             1 Compound
      17 C           19.6210    14.1560    26.5770 C             1 Compound
      18 C           22.1198    15.0447    16.6025 C             1 Compound
      19 C           24.6394    11.7243    32.8896 C             1 Compound
      20 C           21.5062    15.6221    15.3403 C             1 Compound
      21 H           22.0474    13.8774    21.6946 H             1 Compound
      22 H           23.1486    15.2558    21.7082 H             1 Compound
      23 H           21.4452    16.5981    22.9756 H             1 Compound
      24 H           20.3555    15.2106    22.9691 H             1 Compound
      25 H           21.4582    16.6161    20.4431 H             1 Compound
      26 H           20.3626    15.2338    20.4228 H             1 Compound
      27 H           23.1545    15.2307    24.2250 H             1 Compound
      28 H           22.0290    13.8785    24.2786 H             1 Compound
      29 H           23.1603    15.2823    19.1654 H             1 Compound
      30 H           22.0568    13.9063    19.1358 H             1 Compound
      31 H           21.0635    11.9383    29.8147 H             1 Compound
      32 H           22.4754    12.8818    29.3368 H             1 Compound
      33 H           20.5594    13.6450    31.6060 H             1 Compound
      34 H           22.0258    14.5162    31.1827 H             1 Compound
      35 H           19.5861    13.9004    29.3087 H             1 Compound
      36 H           20.9999    14.8484    28.8495 H             1 Compound
      37 H           21.5114    16.6457    25.5015 H             1 Compound
      38 H           22.0950    15.2615    26.3883 H             1 Compound
      39 H           20.3776    15.2811    17.8749 H             1 Compound
      40 H           21.4811    16.6571    17.9023 H             1 Compound
      41 H           21.9366    11.6072    32.1672 H             1 Compound
      42 H           22.2451    13.0031    33.1886 H             1 Compound
      43 H           21.5027    13.1895    27.0250 H             1 Compound
      44 H           20.0832    12.2669    27.4704 H             1 Compound
      45 H           19.2978    15.6559    25.1688 H             1 Compound
      46 H           24.0201    12.0905    30.8581 H             1 Compound
      47 H           24.2851    13.5567    31.8011 H             1 Compound
      48 H           18.5558    13.9480    26.6417 H             1 Compound
      49 H           22.0523    13.9545    16.5610 H             1 Compound
      50 H           23.1820    15.3026    16.6308 H             1 Compound
      51 H           24.2592    10.7011    32.9332 H             1 Compound
      52 H           24.5416    12.1742    33.8803 H             1 Compound
      53 H           25.7011    11.6852    32.6354 H             1 Compound
@<TRIPOS>BOND
       1        1       20 1
       2        2       20 1
       3        3        4 1
       4        3        5 1
       5        3       21 1
       6        3       22 1
       7        4        6 1
       8        4       23 1
       9        4       24 1
      10        5        7 1
      11        5       25 1
      12        5       26 1
      13        6       11 1
      14        6       27 1
      15        6       28 1
      16        7       12 1
      17        7       29 1
      18        7       30 1
      19        8        9 1
      20        8       10 1
      21        8       31 1
      22        8       32 1
      23        9       13 1
      24        9       33 1
      25        9       34 1
      26       10       14 1
      27       10       35 1
      28       10       36 1
      29       11       15 1
      30       11       37 1
      31       11       38 1
      32       12       18 1
      33       12       39 1
      34       12       40 1
      35       13       16 1
      36       13       41 1
      37       13       42 1
      38       14       17 1
      39       14       43 1
      40       14       44 1
      41       15       17 1
      42       15       45 1
      43       16       19 1
      44       16       46 1
      45       16       47 1
      46       17       48 1
      47       18       20 1
      48       18       49 1
      49       18       50 1
      50       19       51 1
      51       19       52 1
      52       19       53 1
@<TRIPOS>SUBSTRUCTURE
       1 Compound        1 RESIDUE    0 **** ROOT      0
