@<TRIPOS>MOLECULE
hexane
20 19 1 0 0 
SMALL
NO_CHARGES


@<TRIPOS>ATOM
  1 C        2.4469    -0.1850    10.7709 C.3   1 <1>   0.0000 
  2 C1       3.8749    -0.1850    10.7709 C.3   1 <1>   0.0000 
  3 H11      4.2382    -0.4510    11.7636 H     1 <1>   0.0000 
  4 C12      4.3509     1.1154    10.4224 C.3   1 <1>   0.0000 
  5 H121     3.9876     1.8421    11.1491 H     1 <1>   0.0000 
  6 H122     3.9876     1.3814     9.4298 H     1 <1>   0.0000 
  7 C123     5.7789     1.1154    10.4224 C.3   1 <1>   0.0000 
  8 H121     6.1423     0.8495    11.4151 H     1 <1>   0.0000 
  9 C122     6.2550     2.4159    10.0740 C.3   1 <1>   0.0000 
 10 H121     5.8916     3.1426    10.8006 H     1 <1>   0.0000 
 11 H122     5.8916     2.6819     9.0813 H     1 <1>   0.0000 
 12 C123     7.6830     2.4159    10.0740 C.3   1 <1>   0.0000 
 13 H121     8.0463     2.1499    11.0666 H     1 <1>   0.0000 
 14 H122     8.0463     3.4085     9.8080 H     1 <1>   0.0000 
 15 H123     8.0463     1.6892     9.3473 H     1 <1>   0.0000 
 16 H123     6.1423     0.3888     9.6958 H     1 <1>   0.0000 
 17 H13      4.2383    -0.9117    10.0443 H     1 <1>   0.0000 
 18 H2       2.0836     0.5417    11.4976 H     1 <1>   0.0000 
 19 H3       2.0836    -1.1776    11.0369 H     1 <1>   0.0000 
 20 H4       2.0836     0.0810     9.7783 H     1 <1>   0.0000 
@<TRIPOS>BOND
  1   1   2  1   
  2   1  18  1   
  3   1  19  1   
  4   1  20  1   
  5   2   3  1   
  6   2   4  1   
  7   2  17  1   
  8   4   5  1   
  9   4   6  1   
 10   4   7  1   
 11   7   8  1   
 12   7   9  1   
 13   7  16  1   
 14   9  10  1   
 15   9  11  1   
 16   9  12  1   
 17  12  13  1   
 18  12  14  1   
 19  12  15  1   
@<TRIPOS>SUBSTRUCTURE
  1 ****   7 GROUP 4 **** **** 0

# MOE 2020.09 (io_trps.svl 2020.11)
