@<TRIPOS>MOLECULE
oleic.****
53 52 1 0 0 
SMALL
USER_CHARGES


@<TRIPOS>ATOM
  1 C      -17.7683     2.9309     3.6022 C.2   1 <1>   0.9060 
  2 C1     -16.3086     3.2541     3.3204 C.3   1 <1>  -0.2660 
  3 H11    -15.8142     3.4020     4.2781 H     1 <1>   0.0800 
  4 H12    -16.2797     4.1842     2.7568 H     1 <1>   0.0800 
  5 C13    -15.5982     2.1412     2.5310 C.3   1 <1>  -0.1600 
  6 H131   -15.6608     1.2131     3.1033 H     1 <1>   0.0800 
  7 C132   -14.1293     2.5033     2.2783 C.3   1 <1>  -0.1600 
  8 H131   -13.6302     2.6537     3.2372 H     1 <1>   0.0800 
  9 H132   -14.0832     3.4316     1.7060 H     1 <1>   0.0800 
 10 C133   -13.4240     1.3838     1.5021 C.3   1 <1>  -0.1600 
 11 C131   -11.9500     1.7371     1.2651 C.3   1 <1>  -0.1600 
 12 H131   -11.8881     2.6616     0.6878 H     1 <1>   0.0800 
 13 C132   -11.2382     0.6111     0.5036 C.3   1 <1>  -0.1600 
 14 H131   -11.7331     0.4605    -0.4574 H     1 <1>   0.0800 
 15 H132   -11.3150    -0.3134     1.0788 H     1 <1>   0.0800 
 16 C133    -9.7517     0.9034     0.2533 C.3   1 <1>  -0.0218 
 17 H131    -9.6528     1.8114    -0.3266 H     1 <1>   0.0800 
 18 C132    -9.0489    -0.2281    -0.4715 C.2   1 <1>  -0.2882 
 19 H132    -9.6475    -0.7354    -1.1860 H     1 <1>   0.1500 
 20 C133    -7.7709    -0.5926    -0.2769 C.2   1 <1>  -0.2882 
 21 H131    -7.3580    -1.4073    -0.8171 H     1 <1>   0.1500 
 22 C132    -6.8211     0.0712     0.7004 C.3   1 <1>  -0.0218 
 23 C131    -5.3453    -0.0978     0.3102 C.3   1 <1>  -0.1600 
 24 H131    -5.1086    -1.1630     0.2860 H     1 <1>   0.0800 
 25 C132    -4.3896     0.6107     1.2800 C.3   1 <1>  -0.1600 
 26 H131    -4.5156     0.1926     2.2807 H     1 <1>   0.0800 
 27 H132    -4.6329     1.6745     1.3112 H     1 <1>   0.0800 
 28 C133    -2.9313     0.4382     0.8356 C.3   1 <1>  -0.1600 
 29 H131    -2.6818    -0.6245     0.8131 H     1 <1>   0.0800 
 30 C132    -1.9858     1.1641     1.8020 C.3   1 <1>  -0.1600 
 31 H131    -2.1050     0.7498     2.8050 H     1 <1>   0.0800 
 32 H132    -2.2398     2.2257     1.8275 H     1 <1>   0.0800 
 33 C133    -0.5268     1.0026     1.3557 C.3   1 <1>  -0.1600 
 34 H131    -0.2696    -0.0581     1.3359 H     1 <1>   0.0800 
 35 C132     0.4166     1.7367     2.3169 C.3   1 <1>  -0.1600 
 36 H131     0.2990     1.3336     3.3248 H     1 <1>   0.0800 
 37 H132     0.1669     2.7995     2.3333 H     1 <1>   0.0800 
 38 C133     1.8737     1.5689     1.8750 C.3   1 <1>  -0.2400 
 39 H131     2.1426     0.5115     1.8673 H     1 <1>   0.0800 
 40 H132     2.5289     2.0959     2.5693 H     1 <1>   0.0800 
 41 H133     2.0105     1.9831     0.8751 H     1 <1>   0.0800 
 42 H133    -0.4080     1.4116     0.3504 H     1 <1>   0.0800 
 43 H133    -2.8077     0.8498    -0.1681 H     1 <1>   0.0800 
 44 H133    -5.2055     0.3098    -0.6928 H     1 <1>   0.0800 
 45 H132    -6.9846    -0.3379     1.6885 H     1 <1>   0.0800 
 46 H133    -7.0391     1.1279     0.7727 H     1 <1>   0.0800 
 47 H133    -9.2758     1.1032     1.2031 H     1 <1>   0.0800 
 48 H133   -11.4579     1.8897     2.2277 H     1 <1>   0.0800 
 49 H132   -13.9250     1.2407     0.5427 H     1 <1>   0.0800 
 50 H133   -13.4891     0.4561     2.0740 H     1 <1>   0.0800 
 51 H133   -16.1175     2.0002     1.5808 H     1 <1>   0.0800 
 52 O2     -18.6045     3.3253     2.7629 O.co2 1 <1>  -0.9000 
 53 O3     -18.0118     2.2990     4.6510 O.co2 1 <1>  -0.9000 
@<TRIPOS>BOND
  1   1   2  1   
  2   1  52  ar  
  3   1  53  ar  
  4   2   3  1   
  5   2   4  1   
  6   2   5  1   
  7   5   6  1   
  8   5   7  1   
  9   5  51  1   
 10   7   8  1   
 11   7   9  1   
 12   7  10  1   
 13  10  11  1   
 14  10  49  1   
 15  10  50  1   
 16  11  12  1   
 17  11  13  1   
 18  11  48  1   
 19  13  14  1   
 20  13  15  1   
 21  13  16  1   
 22  16  17  1   
 23  16  18  1   
 24  16  47  1   
 25  18  19  1   
 26  18  20  2   
 27  20  21  1   
 28  20  22  1   
 29  22  23  1   
 30  22  45  1   
 31  22  46  1   
 32  23  24  1   
 33  23  25  1   
 34  23  44  1   
 35  25  26  1   
 36  25  27  1   
 37  25  28  1   
 38  28  29  1   
 39  28  30  1   
 40  28  43  1   
 41  30  31  1   
 42  30  32  1   
 43  30  33  1   
 44  33  34  1   
 45  33  35  1   
 46  33  42  1   
 47  35  36  1   
 48  35  37  1   
 49  35  38  1   
 50  38  39  1   
 51  38  40  1   
 52  38  41  1   
@<TRIPOS>SUBSTRUCTURE
  1 ****  16 GROUP 4 **** **** 0

# MOE 2020.09 (io_trps.svl 2020.11)
