@<TRIPOS>MOLECULE
oleic
3058 2456 602 0 0 
SMALL
USER_CHARGES


@<TRIPOS>ATOM
   1 C      -17.7683     2.9309     3.6022 C.2     1 <1>    0.9060 
   2 C1     -16.3086     3.2541     3.3204 C.3     1 <1>   -0.2660 
   3 H11    -15.8142     3.4020     4.2781 H       1 <1>    0.0800 
   4 H12    -16.2797     4.1842     2.7568 H       1 <1>    0.0800 
   5 C13    -15.5982     2.1412     2.5310 C.3     1 <1>   -0.1600 
   6 H131   -15.6608     1.2131     3.1033 H       1 <1>    0.0800 
   7 C132   -14.1293     2.5033     2.2783 C.3     1 <1>   -0.1600 
   8 H131   -13.6302     2.6537     3.2372 H       1 <1>    0.0800 
   9 H132   -14.0832     3.4316     1.7060 H       1 <1>    0.0800 
  10 C133   -13.4240     1.3838     1.5021 C.3     1 <1>   -0.1600 
  11 C131   -11.9500     1.7371     1.2651 C.3     1 <1>   -0.1600 
  12 H131   -11.8881     2.6616     0.6878 H       1 <1>    0.0800 
  13 C132   -11.2382     0.6111     0.5036 C.3     1 <1>   -0.1600 
  14 H131   -11.7331     0.4605    -0.4574 H       1 <1>    0.0800 
  15 H132   -11.3150    -0.3134     1.0788 H       1 <1>    0.0800 
  16 C133    -9.7517     0.9034     0.2533 C.3     1 <1>   -0.0218 
  17 H131    -9.6528     1.8114    -0.3266 H       1 <1>    0.0800 
  18 C132    -9.0489    -0.2281    -0.4715 C.2     1 <1>   -0.2882 
  19 H132    -9.6475    -0.7354    -1.1860 H       1 <1>    0.1500 
  20 C133    -7.7709    -0.5926    -0.2769 C.2     1 <1>   -0.2882 
  21 H131    -7.3580    -1.4073    -0.8171 H       1 <1>    0.1500 
  22 C132    -6.8211     0.0712     0.7004 C.3     1 <1>   -0.0218 
  23 C131    -5.3453    -0.0978     0.3102 C.3     1 <1>   -0.1600 
  24 H131    -5.1086    -1.1630     0.2860 H       1 <1>    0.0800 
  25 C132    -4.3896     0.6107     1.2800 C.3     1 <1>   -0.1600 
  26 H131    -4.5156     0.1926     2.2807 H       1 <1>    0.0800 
  27 H132    -4.6329     1.6745     1.3112 H       1 <1>    0.0800 
  28 C133    -2.9313     0.4382     0.8356 C.3     1 <1>   -0.1600 
  29 H131    -2.6818    -0.6245     0.8131 H       1 <1>    0.0800 
  30 C132    -1.9858     1.1641     1.8020 C.3     1 <1>   -0.1600 
  31 H131    -2.1050     0.7498     2.8050 H       1 <1>    0.0800 
  32 H132    -2.2398     2.2257     1.8275 H       1 <1>    0.0800 
  33 C133    -0.5268     1.0026     1.3557 C.3     1 <1>   -0.1600 
  34 H131    -0.2696    -0.0581     1.3359 H       1 <1>    0.0800 
  35 C132     0.4166     1.7367     2.3169 C.3     1 <1>   -0.1600 
  36 H131     0.2990     1.3336     3.3248 H       1 <1>    0.0800 
  37 H132     0.1669     2.7995     2.3333 H       1 <1>    0.0800 
  38 C133     1.8737     1.5689     1.8750 C.3     1 <1>   -0.2400 
  39 H131     2.1426     0.5115     1.8673 H       1 <1>    0.0800 
  40 H132     2.5289     2.0959     2.5693 H       1 <1>    0.0800 
  41 H133     2.0105     1.9831     0.8751 H       1 <1>    0.0800 
  42 H133    -0.4080     1.4116     0.3504 H       1 <1>    0.0800 
  43 H133    -2.8077     0.8498    -0.1681 H       1 <1>    0.0800 
  44 H133    -5.2055     0.3098    -0.6928 H       1 <1>    0.0800 
  45 H132    -6.9846    -0.3379     1.6885 H       1 <1>    0.0800 
  46 H133    -7.0391     1.1279     0.7727 H       1 <1>    0.0800 
  47 H133    -9.2758     1.1032     1.2031 H       1 <1>    0.0800 
  48 H133   -11.4579     1.8897     2.2277 H       1 <1>    0.0800 
  49 H132   -13.9250     1.2407     0.5427 H       1 <1>    0.0800 
  50 H133   -13.4891     0.4561     2.0740 H       1 <1>    0.0800 
  51 H133   -16.1175     2.0002     1.5808 H       1 <1>    0.0800 
  52 O2     -18.6045     3.3253     2.7629 O.co2   1 <1>   -0.9000 
  53 O3     -18.0118     2.2990     4.6510 O.co2   1 <1>   -0.9000 
  54 CL      13.4680   -10.4554   -15.6182 Cl      2 CCL4  -0.0812 
  55 C       13.2337    -8.8140   -14.9540 C.3     2 CCL4   0.3246 
  56 CL      11.7389    -8.1870   -15.6623 Cl      2 CCL4  -0.0812 
  57 CL      14.6567    -7.7574   -15.1765 Cl      2 CCL4  -0.0812 
  58 CL      13.0220    -9.0247   -13.1906 Cl      2 CCL4  -0.0812 
  59 CL     -21.9043   -12.4097   -18.7590 Cl      3 CCL4  -0.0812 
  60 C      -21.4029   -12.4098   -17.1386 C.3     3 CCL4   0.3246 
  61 CL     -21.7394   -13.9054   -16.3538 Cl      3 CCL4  -0.0812 
  62 CL     -21.9611   -11.0544   -16.2524 Cl      3 CCL4  -0.0812 
  63 CL     -19.6109   -12.2833   -17.1608 Cl      3 CCL4  -0.0812 
  64 CL     -24.0196   -21.5792   -12.9714 Cl      4 CCL4  -0.0812 
  65 C      -24.6174   -20.5613   -14.3665 C.3     4 CCL4   0.3246 
  66 CL     -25.8559   -21.3401   -15.4491 Cl      4 CCL4  -0.0812 
  67 CL     -23.2398   -20.0006   -15.3656 Cl      4 CCL4  -0.0812 
  68 CL     -25.3482   -19.0226   -13.6260 Cl      4 CCL4  -0.0812 
  69 CL     -29.7512   -10.1031   -13.7245 Cl      5 CCL4  -0.0812 
  70 C      -29.4650   -11.8581   -13.5973 C.3     5 CCL4   0.3246 
  71 CL     -29.7097   -12.3733   -11.9066 Cl      5 CCL4  -0.0812 
  72 CL     -27.9258   -12.4575   -14.1608 Cl      5 CCL4  -0.0812 
  73 CL     -30.7190   -12.6713   -14.5652 Cl      5 CCL4  -0.0812 
  74 CL     -25.9794    24.0186     0.8202 Cl      6 CCL4  -0.0812 
  75 C      -24.7969    24.4268     2.1126 C.3     6 CCL4   0.3246 
  76 CL     -24.3287    22.8760     2.7616 Cl      6 CCL4  -0.0812 
  77 CL     -25.7528    25.3035     3.3337 Cl      6 CCL4  -0.0812 
  78 CL     -23.4428    25.3245     1.5489 Cl      6 CCL4  -0.0812 
  79 CL     -22.6465   -17.9510     1.2890 Cl      7 CCL4  -0.0812 
  80 C      -24.3183   -17.3537     1.1621 C.3     7 CCL4   0.3246 
  81 CL     -24.6742   -17.1017    -0.6316 Cl      7 CCL4  -0.0812 
  82 CL     -24.6478   -15.8302     2.0018 Cl      7 CCL4  -0.0812 
  83 CL     -25.5521   -18.5767     1.5869 Cl      7 CCL4  -0.0812 
  84 CL     -28.3018    -1.2211   -13.5422 Cl      8 CCL4  -0.0812 
  85 C      -27.7676     0.3403   -14.2276 C.3     8 CCL4   0.3246 
  86 CL     -28.6958     1.7553   -13.6938 Cl      8 CCL4  -0.0812 
  87 CL     -27.6210     0.3506   -15.9751 Cl      8 CCL4  -0.0812 
  88 CL     -26.1341     0.6061   -13.5704 Cl      8 CCL4  -0.0812 
  89 CL     -24.3054   -13.0208   -13.8918 Cl      9 CCL4  -0.0812 
  90 C      -24.8139   -14.7481   -13.6757 C.3     9 CCL4   0.3246 
  91 CL     -23.3869   -15.6915   -13.2115 Cl      9 CCL4  -0.0812 
  92 CL     -25.4751   -15.4308   -15.1281 Cl      9 CCL4  -0.0812 
  93 CL     -25.9096   -14.8634   -12.2247 Cl      9 CCL4  -0.0812 
  94 CL     -29.4111   -20.8984   -17.7884 Cl     10 CCL4  -0.0812 
  95 C      -31.1924   -21.4243   -17.6391 C.3    10 CCL4   0.3246 
  96 CL     -31.2078   -23.1174   -17.4328 Cl     10 CCL4  -0.0812 
  97 CL     -32.1617   -20.9926   -19.1268 Cl     10 CCL4  -0.0812 
  98 CL     -31.8539   -20.4945   -16.2162 Cl     10 CCL4  -0.0812 
  99 CL     -25.2218    26.0417    -9.8846 Cl     11 CCL4  -0.0812 
 100 C      -25.7227    24.4059    -9.5292 C.3    11 CCL4   0.3246 
 101 CL     -24.4901    23.2754   -10.0724 Cl     11 CCL4  -0.0812 
 102 CL     -27.1601    23.9967   -10.4834 Cl     11 CCL4  -0.0812 
 103 CL     -26.0521    24.2430    -7.8428 Cl     11 CCL4  -0.0812 
 104 CL     -28.8989   -20.2640   -13.9465 Cl     12 CCL4  -0.0812 
 105 C      -29.6428   -19.7734   -12.3952 C.3    12 CCL4   0.3246 
 106 CL     -28.4189   -19.2847   -11.3225 Cl     12 CCL4  -0.0812 
 107 CL     -30.5197   -21.1870   -11.7793 Cl     12 CCL4  -0.0812 
 108 CL     -30.8334   -18.4308   -12.7001 Cl     12 CCL4  -0.0812 
 109 CL     -12.7551    -4.6018   -16.4327 Cl     13 CCL4  -0.0812 
 110 C      -12.8004    -2.9817   -17.1150 C.3    13 CCL4   0.3246 
 111 CL     -12.5554    -1.7073   -15.7578 Cl     13 CCL4  -0.0812 
 112 CL     -14.4159    -2.5859   -17.7702 Cl     13 CCL4  -0.0812 
 113 CL     -11.6340    -2.5560   -18.3708 Cl     13 CCL4  -0.0812 
 114 CL     -20.7750     1.5113   -17.7998 Cl     14 CCL4  -0.0812 
 115 C      -22.5739     1.0957   -17.8041 C.3    14 CCL4   0.3246 
 116 CL     -22.7842    -0.6036   -18.4118 Cl     14 CCL4  -0.0812 
 117 CL     -23.4169     2.2174   -18.8551 Cl     14 CCL4  -0.0812 
 118 CL     -23.2449     1.3787   -16.1395 Cl     14 CCL4  -0.0812 
 119 CL     -28.8582    -0.8300   -18.8384 Cl     15 CCL4  -0.0812 
 120 C      -27.3367    -0.5409   -19.6963 C.3    15 CCL4   0.3246 
 121 CL     -27.0004     1.2310   -19.2572 Cl     15 CCL4  -0.0812 
 122 CL     -27.5711    -0.6087   -21.4466 Cl     15 CCL4  -0.0812 
 123 CL     -25.9764    -1.6269   -19.3131 Cl     15 CCL4  -0.0812 
 124 CL     -10.2861    24.6717   -17.5582 Cl     16 CCL4  -0.0812 
 125 C      -10.4547    23.9441   -19.1723 C.3    16 CCL4   0.3246 
 126 CL     -11.8175    22.7797   -19.2686 Cl     16 CCL4  -0.0812 
 127 CL      -8.8613    23.3117   -19.6002 Cl     16 CCL4  -0.0812 
 128 CL     -10.7999    25.3309   -20.2772 Cl     16 CCL4  -0.0812 
 129 CL     -19.8486   -14.8228    23.5964 Cl     17 CCL4  -0.0812 
 130 C      -18.8478   -16.1489    24.3501 C.3    17 CCL4   0.3246 
 131 CL     -18.4306   -17.2275    23.0064 Cl     17 CCL4  -0.0812 
 132 CL     -19.7840   -16.9456    25.5876 Cl     17 CCL4  -0.0812 
 133 CL     -17.4202   -15.4198    25.0935 Cl     17 CCL4  -0.0812 
 134 CL     -26.8511   -12.8394     1.6898 Cl     18 CCL4  -0.0812 
 135 C      -27.1571   -12.6893    -0.0155 C.3    18 CCL4   0.3246 
 136 CL     -26.0867   -11.5210    -0.7985 Cl     18 CCL4  -0.0812 
 137 CL     -28.8275   -12.2163    -0.3634 Cl     18 CCL4  -0.0812 
 138 CL     -26.9924   -14.3114    -0.8316 Cl     18 CCL4  -0.0812 
 139 CL      13.0766   -11.2491     2.0785 Cl     19 CCL4  -0.0812 
 140 C       13.7789   -12.2469     0.7226 C.3    19 CCL4   0.3246 
 141 CL      15.1627   -13.0829     1.3969 Cl     19 CCL4  -0.0812 
 142 CL      14.3338   -11.0698    -0.4477 Cl     19 CCL4  -0.0812 
 143 CL      12.6626   -13.4147     0.1112 Cl     19 CCL4  -0.0812 
 144 CL     -22.6744   -15.5476   -19.6772 Cl     20 CCL4  -0.0812 
 145 C      -22.9220   -17.1184   -18.9114 C.3    20 CCL4   0.3246 
 146 CL     -24.3007   -17.0822   -17.8280 Cl     20 CCL4  -0.0812 
 147 CL     -21.4649   -17.6044   -17.9663 Cl     20 CCL4  -0.0812 
 148 CL     -23.1447   -18.3985   -20.1904 Cl     20 CCL4  -0.0812 
 149 CL     -29.4758   -17.3225   -22.8584 Cl     21 CCL4  -0.0812 
 150 C      -29.0041   -17.9158   -21.2479 C.3    21 CCL4   0.3246 
 151 CL     -30.1842   -17.3332   -20.0888 Cl     21 CCL4  -0.0812 
 152 CL     -27.4671   -17.1724   -20.7956 Cl     21 CCL4  -0.0812 
 153 CL     -28.7992   -19.6679   -21.3223 Cl     21 CCL4  -0.0812 
 154 CL     -25.8772   -10.9331   -19.6251 Cl     22 CCL4  -0.0812 
 155 C      -26.2632   -12.3883   -18.5771 C.3    22 CCL4   0.3246 
 156 CL     -27.9668   -12.3630   -17.9666 Cl     22 CCL4  -0.0812 
 157 CL     -25.1369   -12.5328   -17.1785 Cl     22 CCL4  -0.0812 
 158 CL     -25.8800   -13.7917   -19.6061 Cl     22 CCL4  -0.0812 
 159 CL     -33.0464   -14.4078   -20.4383 Cl     23 CCL4  -0.0812 
 160 C      -31.8011   -13.4741   -19.6023 C.3    23 CCL4   0.3246 
 161 CL     -31.9911   -13.9293   -17.8050 Cl     23 CCL4  -0.0812 
 162 CL     -32.1751   -11.6796   -19.4982 Cl     23 CCL4  -0.0812 
 163 CL     -30.2900   -13.9803   -20.1922 Cl     23 CCL4  -0.0812 
 164 CL     -28.0261   -18.0023   -16.7087 Cl     24 CCL4  -0.0812 
 165 C      -29.0402   -16.7629   -15.9848 C.3    24 CCL4   0.3246 
 166 CL     -28.7109   -15.2379   -16.8284 Cl     24 CCL4  -0.0812 
 167 CL     -28.4193   -16.5190   -14.2667 Cl     24 CCL4  -0.0812 
 168 CL     -30.7157   -17.2895   -16.0121 Cl     24 CCL4  -0.0812 
 169 CL      -8.7983   -12.5742   -12.7949 Cl     25 CCL4  -0.0812 
 170 C       -9.1276   -14.2017   -13.4516 C.3    25 CCL4   0.3246 
 171 CL     -10.3785   -15.0407   -12.5652 Cl     25 CCL4  -0.0812 
 172 CL      -7.7352   -15.2046   -13.2179 Cl     25 CCL4  -0.0812 
 173 CL      -9.5404   -13.9530   -15.2023 Cl     25 CCL4  -0.0812 
 174 CL      -8.5134   -20.5945   -12.9962 Cl     26 CCL4  -0.0812 
 175 C       -9.9789   -19.7186   -13.5209 C.3    26 CCL4   0.3246 
 176 CL      -9.4139   -18.4749   -14.6736 Cl     26 CCL4  -0.0812 
 177 CL     -10.8711   -18.9698   -12.2221 Cl     26 CCL4  -0.0812 
 178 CL     -11.0804   -20.8049   -14.5061 Cl     26 CCL4  -0.0812 
 179 CL     -10.5882   -13.3780    -7.9992 Cl     27 CCL4  -0.0812 
 180 C      -11.3448   -14.9459    -7.5193 C.3    27 CCL4   0.3246 
 181 CL     -11.4529   -15.9994    -8.9746 Cl     27 CCL4  -0.0812 
 182 CL     -13.0248   -14.6035    -6.8849 Cl     27 CCL4  -0.0812 
 183 CL     -10.3985   -15.8504    -6.2214 Cl     27 CCL4  -0.0812 
 184 CL      15.1155     1.1033   -14.3399 Cl     28 CCL4  -0.0812 
 185 C       13.7585     0.3405   -13.4505 C.3    28 CCL4   0.3246 
 186 CL      12.2397     0.9231   -14.2128 Cl     28 CCL4  -0.0812 
 187 CL      13.7676     0.9318   -11.8000 Cl     28 CCL4  -0.0812 
 188 CL      14.0269    -1.3969   -13.5456 Cl     28 CCL4  -0.0812 
 189 CL     -30.2630     1.6893    25.9123 Cl     29 CCL4  -0.0812 
 190 C      -30.9904     0.9219    24.4108 C.3    29 CCL4   0.3246 
 191 CL     -32.2936     1.9313    23.7218 Cl     29 CCL4  -0.0812 
 192 CL     -31.1754    -0.8133    24.5914 Cl     29 CCL4  -0.0812 
 193 CL     -29.5180     1.0412    23.2677 Cl     29 CCL4  -0.0812 
 194 CL     -10.9862   -18.9493   -18.1061 Cl     30 CCL4  -0.0812 
 195 C      -10.4421   -17.4402   -18.8340 C.3    30 CCL4   0.3246 
 196 CL      -9.1711   -16.6595   -17.7905 Cl     30 CCL4  -0.0812 
 197 CL     -11.7542   -16.1976   -18.9291 Cl     30 CCL4  -0.0812 
 198 CL      -9.7739   -17.5511   -20.4015 Cl     30 CCL4  -0.0812 
 199 CL     -29.4139   -18.5307    -5.3244 Cl     31 CCL4  -0.0812 
 200 C      -28.9416   -19.9967    -6.3142 C.3    31 CCL4   0.3246 
 201 CL     -30.4857   -20.5134    -7.0670 Cl     31 CCL4  -0.0812 
 202 CL     -28.1641   -21.3169    -5.3352 Cl     31 CCL4  -0.0812 
 203 CL     -27.8622   -19.4117    -7.5714 Cl     31 CCL4  -0.0812 
 204 CL     -23.3889    25.1416    -1.9867 Cl     32 CCL4  -0.0812 
 205 C      -22.1228    23.8630    -1.6548 C.3    32 CCL4   0.3246 
 206 CL     -20.9155    24.5688    -0.5723 Cl     32 CCL4  -0.0812 
 207 CL     -21.4007    23.4477    -3.2316 Cl     32 CCL4  -0.0812 
 208 CL     -22.8908    22.4506    -0.8568 Cl     32 CCL4  -0.0812 
 209 CL     -22.4518   -13.2306    -3.2381 Cl     33 CCL4  -0.0812 
 210 C      -21.7078   -13.9293    -1.8844 C.3    33 CCL4   0.3246 
 211 CL     -22.7310   -13.8960    -0.4348 Cl     33 CCL4  -0.0812 
 212 CL     -20.3328   -12.9093    -1.3780 Cl     33 CCL4  -0.0812 
 213 CL     -21.1585   -15.5586    -2.2157 Cl     33 CCL4  -0.0812 
 214 CL      -8.2727   -19.0802    -6.9901 Cl     34 CCL4  -0.0812 
 215 C       -9.2354   -20.4589    -7.7102 C.3    34 CCL4   0.3246 
 216 CL      -8.3924   -21.1025    -9.1640 Cl     34 CCL4  -0.0812 
 217 CL     -10.8033   -19.8272    -8.1890 Cl     34 CCL4  -0.0812 
 218 CL      -9.5567   -21.8421    -6.5485 Cl     34 CCL4  -0.0812 
 219 CL      13.4654    25.6733    -3.0412 Cl     35 CCL4  -0.0812 
 220 C       14.2324    24.0937    -3.4652 C.3    35 CCL4   0.3246 
 221 CL      12.8247    23.0473    -3.8120 Cl     35 CCL4  -0.0812 
 222 CL      15.0628    23.6095    -1.9843 Cl     35 CCL4  -0.0812 
 223 CL      15.3923    24.0277    -4.7861 Cl     35 CCL4  -0.0812 
 224 CL     -23.6546   -14.9690    -9.1648 Cl     36 CCL4  -0.0812 
 225 C      -22.7537   -13.8963    -8.0911 C.3    36 CCL4   0.3246 
 226 CL     -21.5938   -12.8089    -8.8996 Cl     36 CCL4  -0.0812 
 227 CL     -21.7817   -14.9809    -6.8431 Cl     36 CCL4  -0.0812 
 228 CL     -23.8597   -12.9308    -7.1114 Cl     36 CCL4  -0.0812 
 229 CL     -24.7319   -11.6494   -10.3464 Cl     37 CCL4  -0.0812 
 230 C      -26.3059   -11.3717    -9.4769 C.3    37 CCL4   0.3246 
 231 CL     -26.0326   -10.4237    -8.0446 Cl     37 CCL4  -0.0812 
 232 CL     -27.0072   -12.9890    -9.0314 Cl     37 CCL4  -0.0812 
 233 CL     -27.3357   -10.4897   -10.5287 Cl     37 CCL4  -0.0812 
 234 CL     -19.7232   -19.4954   -10.7834 Cl     38 CCL4  -0.0812 
 235 C      -21.2616   -19.0710   -10.1949 C.3    38 CCL4   0.3246 
 236 CL     -22.3435   -18.7522   -11.6374 Cl     38 CCL4  -0.0812 
 237 CL     -21.1719   -17.6211    -9.2572 Cl     38 CCL4  -0.0812 
 238 CL     -21.9964   -20.3539    -9.2675 Cl     38 CCL4  -0.0812 
 239 CL     -26.4242    -1.9457    -4.3745 Cl     39 CCL4  -0.0812 
 240 C      -27.0132    -0.3358    -3.6565 C.3    39 CCL4   0.3246 
 241 CL     -26.8827    -0.5816    -1.9110 Cl     39 CCL4  -0.0812 
 242 CL     -28.5940     0.2428    -4.0521 Cl     39 CCL4  -0.0812 
 243 CL     -25.7852     0.9501    -4.0780 Cl     39 CCL4  -0.0812 
 244 CL     -22.9064   -18.1458    -4.3732 Cl     40 CCL4  -0.0812 
 245 C      -23.9368   -19.1273    -5.3352 C.3    40 CCL4   0.3246 
 246 CL     -24.4154   -18.2562    -6.8073 Cl     40 CCL4  -0.0812 
 247 CL     -25.3472   -19.4841    -4.3654 Cl     40 CCL4  -0.0812 
 248 CL     -23.1374   -20.6104    -5.7490 Cl     40 CCL4  -0.0812 
 249 CL     -18.3471   -10.5567    -6.5143 Cl     41 CCL4  -0.0812 
 250 C      -17.7498   -11.7590    -5.4077 C.3    41 CCL4   0.3246 
 251 CL     -18.5079   -13.3286    -5.8119 Cl     41 CCL4  -0.0812 
 252 CL     -18.2115   -11.3519    -3.7051 Cl     41 CCL4  -0.0812 
 253 CL     -15.9861   -11.9688    -5.4208 Cl     41 CCL4  -0.0812 
 254 CL     -28.6383   -15.2235    -3.5997 Cl     42 CCL4  -0.0812 
 255 C      -27.1534   -14.9361    -4.5429 C.3    42 CCL4   0.3246 
 256 CL     -27.5243   -15.2704    -6.2283 Cl     42 CCL4  -0.0812 
 257 CL     -25.9508   -16.0030    -3.8932 Cl     42 CCL4  -0.0812 
 258 CL     -26.7273   -13.1689    -4.4369 Cl     42 CCL4  -0.0812 
 259 CL     -12.2573   -10.7118    -4.1086 Cl     43 CCL4  -0.0812 
 260 C      -10.9081   -11.5176    -3.2086 C.3    43 CCL4   0.3246 
 261 CL      -9.3103   -11.1271    -4.0312 Cl     43 CCL4  -0.0812 
 262 CL     -11.1592   -13.2761    -3.2713 Cl     43 CCL4  -0.0812 
 263 CL     -10.9017   -10.8316    -1.5437 Cl     43 CCL4  -0.0812 
 264 CL     -30.3364   -15.5010   -10.3248 Cl     44 CCL4  -0.0812 
 265 C      -31.4316   -16.4633    -9.3898 C.3    44 CCL4   0.3246 
 266 CL     -33.1180   -16.1707    -9.8553 Cl     44 CCL4  -0.0812 
 267 CL     -31.3550   -15.9024    -7.7550 Cl     44 CCL4  -0.0812 
 268 CL     -31.0140   -18.1761    -9.5001 Cl     44 CCL4  -0.0812 
 269 CL     -13.8220    25.5278   -11.7538 Cl     45 CCL4  -0.0812 
 270 C      -12.8197    24.0218   -11.5548 C.3    45 CCL4   0.3246 
 271 CL     -13.4772    23.2739   -10.0660 Cl     45 CCL4  -0.0812 
 272 CL     -11.0987    24.4744   -11.0933 Cl     45 CCL4  -0.0812 
 273 CL     -12.8891    23.0400   -13.0607 Cl     45 CCL4  -0.0812 
 274 CL      -9.7526    -2.2518    -7.2369 Cl     46 CCL4  -0.0812 
 275 C       -9.3066    -1.4051    -8.7272 C.3    46 CCL4   0.3246 
 276 CL      -8.6301     0.1882    -8.2344 Cl     46 CCL4  -0.0812 
 277 CL     -10.9019    -1.1483    -9.4769 Cl     46 CCL4  -0.0812 
 278 CL      -8.2350    -2.2495    -9.8862 Cl     46 CCL4  -0.0812 
 279 CL     -27.1431   -20.8824    -1.9865 Cl     47 CCL4  -0.0812 
 280 C      -28.4251   -19.7939    -1.3577 C.3    47 CCL4   0.3246 
 281 CL     -28.6521   -20.3279     0.3525 Cl     47 CCL4  -0.0812 
 282 CL     -29.8728   -19.9184    -2.3269 Cl     47 CCL4  -0.0812 
 283 CL     -27.9003   -18.0908    -1.3835 Cl     47 CCL4  -0.0812 
 284 CL      12.1032   -19.4448     1.4816 Cl     48 CCL4  -0.0812 
 285 C       13.7491   -18.9926     1.6072 C.3    48 CCL4   0.3246 
 286 CL      14.0531   -17.2413     1.8294 Cl     48 CCL4  -0.0812 
 287 CL      14.5941   -19.5275     0.1312 Cl     48 CCL4  -0.0812 
 288 CL      14.5045   -19.9018     2.8545 Cl     48 CCL4  -0.0812 
 289 CL     -24.6892    -7.2871   -15.9126 Cl     49 CCL4  -0.0812 
 290 C      -25.3795    -8.4172   -14.7162 C.3    49 CCL4   0.3246 
 291 CL     -26.5156    -9.5126   -15.7151 Cl     49 CCL4  -0.0812 
 292 CL     -26.3323    -7.3684   -13.5652 Cl     49 CCL4  -0.0812 
 293 CL     -24.2107    -9.4863   -13.9519 Cl     49 CCL4  -0.0812 
 294 CL     -25.3854    -3.2848    -8.5310 Cl     50 CCL4  -0.0812 
 295 C      -25.7735    -3.6003   -10.2879 C.3    50 CCL4   0.3246 
 296 CL     -26.9726    -5.0217   -10.3047 Cl     50 CCL4  -0.0812 
 297 CL     -24.2304    -4.1875   -11.0509 Cl     50 CCL4  -0.0812 
 298 CL     -26.4176    -2.2190   -11.0377 Cl     50 CCL4  -0.0812 
 299 CL     -29.2992    -4.5416   -13.1152 Cl     51 CCL4  -0.0812 
 300 C      -30.4238    -5.3326   -12.0188 C.3    51 CCL4   0.3246 
 301 CL     -30.0248    -7.0140   -11.7626 Cl     51 CCL4  -0.0812 
 302 CL     -32.0680    -5.2102   -12.7653 Cl     51 CCL4  -0.0812 
 303 CL     -30.4327    -4.5728   -10.3944 Cl     51 CCL4  -0.0812 
 304 CL     -14.6403    -8.0048   -19.9444 Cl     52 CCL4  -0.0812 
 305 C      -14.7035    -6.5836   -21.0182 C.3    52 CCL4   0.3246 
 306 CL     -13.7106    -6.7581   -22.4592 Cl     52 CCL4  -0.0812 
 307 CL     -14.0154    -5.2484   -19.9522 Cl     52 CCL4  -0.0812 
 308 CL     -16.3219    -6.2475   -21.4675 Cl     52 CCL4  -0.0812 
 309 CL      -9.2631    -7.6529    -2.3252 Cl     53 CCL4  -0.0812 
 310 C       -9.3452    -6.8912    -0.7711 C.3    53 CCL4   0.3246 
 311 CL     -10.1649    -7.9537     0.4318 Cl     53 CCL4  -0.0812 
 312 CL     -10.2289    -5.4089    -0.9071 Cl     53 CCL4  -0.0812 
 313 CL      -7.6805    -6.6038    -0.1753 Cl     53 CCL4  -0.0812 
 314 CL     -24.5717    -4.3094   -17.4778 Cl     54 CCL4  -0.0812 
 315 C      -25.5632    -3.4792   -16.1988 C.3    54 CCL4   0.3246 
 316 CL     -25.4854    -4.1572   -14.6013 Cl     54 CCL4  -0.0812 
 317 CL     -27.2891    -3.3838   -16.5817 Cl     54 CCL4  -0.0812 
 318 CL     -24.9532    -1.7836   -16.1642 Cl     54 CCL4  -0.0812 
 319 CL     -30.1668     1.1248    -8.3378 Cl     55 CCL4  -0.0812 
 320 C      -29.6216    -0.5663    -8.6297 C.3    55 CCL4   0.3246 
 321 CL     -30.5816    -1.6651    -7.6523 Cl     55 CCL4  -0.0812 
 322 CL     -27.9568    -0.8414    -8.2291 Cl     55 CCL4  -0.0812 
 323 CL     -29.8130    -0.9989   -10.3079 Cl     55 CCL4  -0.0812 
 324 CL     -11.1487    -4.4004    25.7198 Cl     56 CCL4  -0.0812 
 325 C      -10.5368    -3.1279    24.6593 C.3    56 CCL4   0.3246 
 326 CL      -9.0334    -3.6640    23.8802 Cl     56 CCL4  -0.0812 
 327 CL     -10.1190    -1.5988    25.4981 Cl     56 CCL4  -0.0812 
 328 CL     -11.7498    -2.8572    23.3787 Cl     56 CCL4  -0.0812 
 329 CL     -23.1211    -5.8569   -22.8900 Cl     57 CCL4  -0.0812 
 330 C      -23.7584    -4.7683   -21.6013 C.3    57 CCL4   0.3246 
 331 CL     -25.0808    -5.4901   -20.6187 Cl     57 CCL4  -0.0812 
 332 CL     -24.3043    -3.3174   -22.4285 Cl     57 CCL4  -0.0812 
 333 CL     -22.4022    -4.2371   -20.6494 Cl     57 CCL4  -0.0812 
 334 CL     -29.4043   -11.0540    25.4224 Cl     58 CCL4  -0.0812 
 335 C      -28.8920    -9.6022    24.6607 C.3    58 CCL4   0.3246 
 336 CL     -29.0924    -8.2587    25.7423 Cl     58 CCL4  -0.0812 
 337 CL     -29.7374    -9.1922    23.1865 Cl     58 CCL4  -0.0812 
 338 CL     -27.1056    -9.6371    24.3452 Cl     58 CCL4  -0.0812 
 339 CL     -28.9359    -3.7868    26.1689 Cl     59 CCL4  -0.0812 
 340 C      -28.9904    -4.3631    24.5247 C.3    59 CCL4   0.3246 
 341 CL     -28.8837    -3.0532    23.3330 Cl     59 CCL4  -0.0812 
 342 CL     -30.5324    -5.1136    24.3811 Cl     59 CCL4  -0.0812 
 343 CL     -27.5978    -5.3949    24.1906 Cl     59 CCL4  -0.0812 
 344 CL     -32.0033    -2.5537   -19.1161 Cl     60 CCL4  -0.0812 
 345 C      -32.4058    -2.6811   -17.3072 C.3    60 CCL4   0.3246 
 346 CL     -33.2160    -4.2948   -17.1207 Cl     60 CCL4  -0.0812 
 347 CL     -33.7297    -1.5215   -16.9688 Cl     60 CCL4  -0.0812 
 348 CL     -30.9673    -2.6682   -16.3502 Cl     60 CCL4  -0.0812 
 349 CL     -29.6066    -9.0965   -17.3634 Cl     61 CCL4  -0.0812 
 350 C      -29.3460    -7.3839   -17.4584 C.3    61 CCL4   0.3246 
 351 CL     -30.4679    -6.5292   -18.4226 Cl     61 CCL4  -0.0812 
 352 CL     -27.6225    -7.1863   -18.2297 Cl     61 CCL4  -0.0812 
 353 CL     -29.1071    -6.7020   -15.7999 Cl     61 CCL4  -0.0812 
 354 CL      13.5605    -8.3644   -18.9316 Cl     62 CCL4  -0.0812 
 355 C       13.2292    -7.5959   -20.5048 C.3    62 CCL4   0.3246 
 356 CL      11.5901    -7.7966   -21.0369 Cl     62 CCL4  -0.0812 
 357 CL      14.2304    -8.2601   -21.7579 Cl     62 CCL4  -0.0812 
 358 CL      13.4543    -5.8686   -20.3529 Cl     62 CCL4  -0.0812 
 359 CL     -11.0184   -10.7963   -10.0841 Cl     63 CCL4  -0.0812 
 360 C      -11.9805   -10.0053    -8.8226 C.3    63 CCL4   0.3246 
 361 CL     -10.9491    -9.3899    -7.5203 Cl     63 CCL4  -0.0812 
 362 CL     -13.1959   -10.9871    -8.0849 Cl     63 CCL4  -0.0812 
 363 CL     -12.6903    -8.4046    -9.5797 Cl     63 CCL4  -0.0812 
 364 CL     -10.2484    -5.2754   -11.4041 Cl     64 CCL4  -0.0812 
 365 C      -11.0618    -4.6513   -12.7600 C.3    64 CCL4   0.3246 
 366 CL     -12.6423    -5.4710   -12.8661 Cl     64 CCL4  -0.0812 
 367 CL     -10.3334    -4.9691   -14.2609 Cl     64 CCL4  -0.0812 
 368 CL     -11.2808    -2.9519   -12.4633 Cl     64 CCL4  -0.0812 
 369 CL     -20.8947   -11.1265    24.7302 Cl     65 CCL4  -0.0812 
 370 C      -22.5963   -11.0684    24.4448 C.3    65 CCL4   0.3246 
 371 CL     -23.3023   -12.5317    24.9037 Cl     65 CCL4  -0.0812 
 372 CL     -22.9321   -10.6179    22.7049 Cl     65 CCL4  -0.0812 
 373 CL     -23.2511    -9.7001    25.4617 Cl     65 CCL4  -0.0812 
 374 CL     -21.1450    -4.2498    -4.1001 Cl     66 CCL4  -0.0812 
 375 C      -22.7299    -4.2595    -3.2990 C.3    66 CCL4   0.3246 
 376 CL     -22.8667    -5.4690    -1.9824 Cl     66 CCL4  -0.0812 
 377 CL     -24.0763    -4.4958    -4.5377 Cl     66 CCL4  -0.0812 
 378 CL     -23.0882    -2.5766    -2.7455 Cl     66 CCL4  -0.0812 
 379 CL     -23.8008    -6.4477    -8.0513 Cl     67 CCL4  -0.0812 
 380 C      -23.1431    -7.6609    -9.1763 C.3    67 CCL4   0.3246 
 381 CL     -24.2855    -8.0730   -10.4258 Cl     67 CCL4  -0.0812 
 382 CL     -22.6488    -9.0760    -8.3429 Cl     67 CCL4  -0.0812 
 383 CL     -21.8034    -6.9505   -10.0557 Cl     67 CCL4  -0.0812 
 384 CL     -19.2793    -4.5804    -9.5820 Cl     68 CCL4  -0.0812 
 385 C      -19.7745    -4.7836    -7.7776 C.3    68 CCL4   0.3246 
 386 CL     -21.4519    -4.0851    -7.4827 Cl     68 CCL4  -0.0812 
 387 CL     -18.5480    -3.8381    -6.7945 Cl     68 CCL4  -0.0812 
 388 CL     -19.6795    -6.4863    -7.2976 Cl     68 CCL4  -0.0812 
 389 CL     -28.2819    -9.5644    -2.9701 Cl     69 CCL4  -0.0812 
 390 C      -29.8059    -9.9740    -3.7494 C.3    69 CCL4   0.3246 
 391 CL     -31.1992    -9.2292    -3.0269 Cl     69 CCL4  -0.0812 
 392 CL     -29.9643   -11.7555    -3.7741 Cl     69 CCL4  -0.0812 
 393 CL     -29.7229    -9.4740    -5.4099 Cl     69 CCL4  -0.0812 
 394 CL     -28.3899    -4.3523    -6.5441 Cl     70 CCL4  -0.0812 
 395 C      -28.7484    -6.1367    -6.5287 C.3    70 CCL4   0.3246 
 396 CL     -29.8956    -6.7102    -7.7078 Cl     70 CCL4  -0.0812 
 397 CL     -29.5120    -6.3704    -4.8769 Cl     70 CCL4  -0.0812 
 398 CL     -27.2609    -7.1450    -6.5859 Cl     70 CCL4  -0.0812 
 399 CL     -12.7331    -2.3936    -4.6507 Cl     71 CCL4  -0.0812 
 400 C      -11.7518    -3.2178    -3.4594 C.3    71 CCL4   0.3246 
 401 CL     -11.1676    -4.7229    -4.1901 Cl     71 CCL4  -0.0812 
 402 CL     -12.6921    -3.5182    -2.1087 Cl     71 CCL4  -0.0812 
 403 CL     -10.2949    -2.1753    -3.0928 Cl     71 CCL4  -0.0812 
 404 CL     -22.0628     1.3310    -7.0005 Cl     72 CCL4  -0.0812 
 405 C      -21.9454    -0.4295    -7.1499 C.3    72 CCL4   0.3246 
 406 CL     -20.3360    -0.9434    -6.7286 Cl     72 CCL4  -0.0812 
 407 CL     -22.0259    -0.8822    -8.8821 Cl     72 CCL4  -0.0812 
 408 CL     -23.1047    -1.2072    -6.1017 Cl     72 CCL4  -0.0812 
 409 CL     -31.8495    -1.8341    -4.1234 Cl     73 CCL4  -0.0812 
 410 C      -31.3106    -2.9068    -2.7191 C.3    73 CCL4   0.3246 
 411 CL     -32.1419    -4.4498    -2.8034 Cl     73 CCL4  -0.0812 
 412 CL     -31.7953    -2.0957    -1.2435 Cl     73 CCL4  -0.0812 
 413 CL     -29.4943    -3.1275    -2.9331 Cl     73 CCL4  -0.0812 
 414 CL     -26.4429    -6.6874    -2.9939 Cl     74 CCL4  -0.0812 
 415 C      -26.8918    -6.1978    -1.3463 C.3    74 CCL4   0.3246 
 416 CL     -26.2149    -7.6132    -0.4120 Cl     74 CCL4  -0.0812 
 417 CL     -28.6700    -6.1308    -1.1234 Cl     74 CCL4  -0.0812 
 418 CL     -26.2139    -4.6362    -0.8996 Cl     74 CCL4  -0.0812 
 419 CL     -22.1997    -9.7624    -2.4272 Cl     75 CCL4  -0.0812 
 420 C      -22.8335    -9.6297    -4.0860 C.3    75 CCL4   0.3246 
 421 CL     -21.8241   -10.4431    -5.2726 Cl     75 CCL4  -0.0812 
 422 CL     -23.0443    -7.8326    -4.5409 Cl     75 CCL4  -0.0812 
 423 CL     -24.3947   -10.3804    -4.1864 Cl     75 CCL4  -0.0812 
 424 CL     -15.7416    -4.2355    -8.8257 Cl     76 CCL4  -0.0812 
 425 C      -14.1077    -3.8452    -8.2418 C.3    76 CCL4   0.3246 
 426 CL     -13.9913    -2.0731    -7.9344 Cl     76 CCL4  -0.0812 
 427 CL     -12.8851    -4.3564    -9.4586 Cl     76 CCL4  -0.0812 
 428 CL     -13.8199    -4.5756    -6.6578 Cl     76 CCL4  -0.0812 
 429 CL      13.6631    -7.2577    -5.7482 Cl     77 CCL4  -0.0812 
 430 C       13.5722    -6.3950    -7.3054 C.3    77 CCL4   0.3246 
 431 CL      14.4005    -4.7541    -7.3094 Cl     77 CCL4  -0.0812 
 432 CL      11.8451    -5.8800    -7.4798 Cl     77 CCL4  -0.0812 
 433 CL      14.1696    -7.3609    -8.7061 Cl     77 CCL4  -0.0812 
 434 CL     -32.3252   -10.7392    -6.9783 Cl     78 CCL4  -0.0812 
 435 C      -31.2414   -11.3372    -8.2473 C.3    78 CCL4   0.3246 
 436 CL     -32.1878   -12.6688    -8.9514 Cl     78 CCL4  -0.0812 
 437 CL     -29.9093   -12.1892    -7.4340 Cl     78 CCL4  -0.0812 
 438 CL     -30.7337   -10.0859    -9.4151 Cl     78 CCL4  -0.0812 
 439 CL     -19.0032    -7.2601    -2.8487 Cl     79 CCL4  -0.0812 
 440 C      -18.8920    -7.4429    -1.1101 C.3    79 CCL4   0.3246 
 441 CL     -17.2108    -6.7627    -0.6772 Cl     79 CCL4  -0.0812 
 442 CL     -18.9996    -9.1988    -0.7180 Cl     79 CCL4  -0.0812 
 443 CL     -20.0859    -6.5073    -0.2304 Cl     79 CCL4  -0.0812 
 444 CL     -16.7300    -9.1452   -17.4188 Cl     80 CCL4  -0.0812 
 445 C      -16.1990    -7.7978   -16.4385 C.3    80 CCL4   0.3246 
 446 CL     -16.4460    -6.2308   -17.3363 Cl     80 CCL4  -0.0812 
 447 CL     -14.4467    -8.0286   -16.1801 Cl     80 CCL4  -0.0812 
 448 CL     -17.1333    -7.7458   -14.8653 Cl     80 CCL4  -0.0812 
 449 CL     -18.5638   -14.9519   -14.5244 Cl     81 CCL4  -0.0812 
 450 C      -19.1139   -16.3238   -13.5667 C.3    81 CCL4   0.3246 
 451 CL     -20.1004   -15.7721   -12.2014 Cl     81 CCL4  -0.0812 
 452 CL     -17.6842   -17.1236   -12.9651 Cl     81 CCL4  -0.0812 
 453 CL     -20.1508   -17.3927   -14.6339 Cl     81 CCL4  -0.0812 
 454 CL     -13.4711   -13.8845     0.7968 Cl     82 CCL4  -0.0812 
 455 C      -12.6729   -15.1839     1.7127 C.3    82 CCL4   0.3246 
 456 CL     -14.0487   -16.0198     2.4359 Cl     82 CCL4  -0.0812 
 457 CL     -11.6535   -14.4022     2.8616 Cl     82 CCL4  -0.0812 
 458 CL     -11.8476   -16.2490     0.6656 Cl     82 CCL4  -0.0812 
 459 CL     -13.7227   -12.8619   -18.3268 Cl     83 CCL4  -0.0812 
 460 C      -12.2509   -11.9039   -18.4311 C.3    83 CCL4   0.3246 
 461 CL     -10.7704   -12.9197   -18.2964 Cl     83 CCL4  -0.0812 
 462 CL     -12.1649   -10.6173   -17.2473 Cl     83 CCL4  -0.0812 
 463 CL     -12.1302   -11.0736   -20.0314 Cl     83 CCL4  -0.0812 
 464 CL     -14.7235   -18.1791   -14.5722 Cl     84 CCL4  -0.0812 
 465 C      -14.0003   -16.5964   -14.5344 C.3    84 CCL4   0.3246 
 466 CL     -13.6679   -16.2299   -12.7467 Cl     84 CCL4  -0.0812 
 467 CL     -15.1379   -15.3312   -15.0590 Cl     84 CCL4  -0.0812 
 468 CL     -12.5160   -16.4018   -15.4635 Cl     84 CCL4  -0.0812 
 469 CL     -13.0973    -9.3956   -13.2604 Cl     85 CCL4  -0.0812 
 470 C      -13.6355   -11.1565   -13.3451 C.3    85 CCL4   0.3246 
 471 CL     -15.0882   -11.1548   -14.4140 Cl     85 CCL4  -0.0812 
 472 CL     -13.9396   -11.7524   -11.7215 Cl     85 CCL4  -0.0812 
 473 CL     -12.2763   -12.1451   -13.9482 Cl     85 CCL4  -0.0812 
 474 CL     -20.2512   -23.2623   -21.6323 Cl     86 CCL4  -0.0812 
 475 C      -19.3601   -21.7213   -21.2889 C.3    86 CCL4   0.3246 
 476 CL     -17.8432   -22.0894   -20.3224 Cl     86 CCL4  -0.0812 
 477 CL     -20.4469   -20.6306   -20.3794 Cl     86 CCL4  -0.0812 
 478 CL     -18.9218   -20.9430   -22.8266 Cl     86 CCL4  -0.0812 
 479 CL     -13.0497   -19.0783    25.6867 Cl     87 CCL4  -0.0812 
 480 C      -14.2610   -20.1506    24.7688 C.3    87 CCL4   0.3246 
 481 CL     -14.5019   -21.6554    25.7065 Cl     87 CCL4  -0.0812 
 482 CL     -13.5407   -20.5377    23.1554 Cl     87 CCL4  -0.0812 
 483 CL     -15.8171   -19.3061    24.7463 Cl     87 CCL4  -0.0812 
 484 CL     -15.6219    -2.9471    24.1773 Cl     88 CCL4  -0.0812 
 485 C      -15.0737    -1.3591    24.5773 C.3    88 CCL4   0.3246 
 486 CL     -14.6968    -0.3951    23.2014 Cl     88 CCL4  -0.0812 
 487 CL     -13.7526    -1.3997    25.7058 Cl     88 CCL4  -0.0812 
 488 CL     -16.3756    -0.4639    25.4106 Cl     88 CCL4  -0.0812 
 489 CL     -17.7645   -15.5122   -18.3503 Cl     89 CCL4  -0.0812 
 490 C      -16.8970   -16.9968   -18.2952 C.3    89 CCL4   0.3246 
 491 CL     -17.4160   -18.2349   -19.5078 Cl     89 CCL4  -0.0812 
 492 CL     -17.2520   -17.8026   -16.6111 Cl     89 CCL4  -0.0812 
 493 CL     -15.1015   -16.8404   -18.3381 Cl     89 CCL4  -0.0812 
 494 CL     -19.2485   -20.5986   -16.3219 Cl     90 CCL4  -0.0812 
 495 C      -18.8743   -21.4169   -14.8069 C.3    90 CCL4   0.3246 
 496 CL     -17.5782   -20.5998   -13.9551 Cl     90 CCL4  -0.0812 
 497 CL     -18.3345   -23.1078   -15.1024 Cl     90 CCL4  -0.0812 
 498 CL     -20.3586   -21.6214   -13.7247 Cl     90 CCL4  -0.0812 
 499 CL     -17.3843    -2.9466   -12.6779 Cl     91 CCL4  -0.0812 
 500 C      -15.7445    -2.5055   -13.1775 C.3    91 CCL4   0.3246 
 501 CL     -14.8084    -2.1423   -11.8023 Cl     91 CCL4  -0.0812 
 502 CL     -15.8209    -0.9807   -14.0712 Cl     91 CCL4  -0.0812 
 503 CL     -15.1362    -3.8444   -14.1361 Cl     91 CCL4  -0.0812 
 504 CL     -15.4264   -11.6909   -21.2934 Cl     92 CCL4  -0.0812 
 505 C      -17.1112   -11.3843   -21.7370 C.3    92 CCL4   0.3246 
 506 CL     -18.1392   -12.1982   -20.5478 Cl     92 CCL4  -0.0812 
 507 CL     -17.5273   -11.9820   -23.3795 Cl     92 CCL4  -0.0812 
 508 CL     -17.6441    -9.6918   -21.6383 Cl     92 CCL4  -0.0812 
 509 CL     -19.9957    -2.9775   -18.6686 Cl     93 CCL4  -0.0812 
 510 C      -18.3113    -2.7258   -18.1996 C.3    93 CCL4   0.3246 
 511 CL     -18.0116    -3.3463   -16.5818 Cl     93 CCL4  -0.0812 
 512 CL     -18.1820    -0.9018   -18.1914 Cl     93 CCL4  -0.0812 
 513 CL     -17.3141    -3.5379   -19.5269 Cl     93 CCL4  -0.0812 
 514 CL     -15.0222   -23.7517   -18.0504 Cl     94 CCL4  -0.0812 
 515 C      -14.9384   -22.2628   -17.1125 C.3    94 CCL4   0.3246 
 516 CL     -14.9362   -22.4624   -15.4115 Cl     94 CCL4  -0.0812 
 517 CL     -16.2235   -21.1500   -17.5855 Cl     94 CCL4  -0.0812 
 518 CL     -13.5186   -21.1996   -17.6289 Cl     94 CCL4  -0.0812 
 519 CL     -15.3323   -15.4173    -9.1261 Cl     95 CCL4  -0.0812 
 520 C      -16.5906   -14.3266    -9.7728 C.3    95 CCL4   0.3246 
 521 CL     -18.2969   -15.0305    -9.2446 Cl     95 CCL4  -0.0812 
 522 CL     -16.5702   -14.2547   -11.5443 Cl     95 CCL4  -0.0812 
 523 CL     -16.6619   -12.7211    -8.9884 Cl     95 CCL4  -0.0812 
 524 CL     -19.3184   -11.2038   -10.7082 Cl     96 CCL4  -0.0812 
 525 C      -19.9962   -10.8543   -12.2716 C.3    96 CCL4   0.3246 
 526 CL     -20.8146   -12.3516   -12.7030 Cl     96 CCL4  -0.0812 
 527 CL     -18.8619   -10.4428   -13.6047 Cl     96 CCL4  -0.0812 
 528 CL     -21.2363    -9.5711   -12.2438 Cl     96 CCL4  -0.0812 
 529 CL     -16.9669   -18.3745    -8.2338 Cl     97 CCL4  -0.0812 
 530 C      -15.4879   -19.0581    -8.9232 C.3    97 CCL4   0.3246 
 531 CL     -15.2733   -18.2954   -10.5622 Cl     97 CCL4  -0.0812 
 532 CL     -15.5924   -20.8097    -9.0344 Cl     97 CCL4  -0.0812 
 533 CL     -14.0762   -18.6704    -7.9383 Cl     97 CCL4  -0.0812 
 534 CL     -14.4719    23.0013    -4.8216 Cl     98 CCL4  -0.0812 
 535 C      -12.9887    23.8101    -5.4169 C.3    98 CCL4   0.3246 
 536 CL     -13.5174    25.0269    -6.6156 Cl     98 CCL4  -0.0812 
 537 CL     -11.8862    22.6129    -6.0876 Cl     98 CCL4  -0.0812 
 538 CL     -12.1663    24.4786    -4.0189 Cl     98 CCL4  -0.0812 
 539 CL     -31.9867   -16.8195    -4.0578 Cl     99 CCL4  -0.0812 
 540 C      -32.4149   -15.8179    -2.6838 C.3    99 CCL4   0.3246 
 541 CL     -32.7868   -14.1400    -3.1158 Cl     99 CCL4  -0.0812 
 542 CL     -33.9804   -16.3884    -1.9791 Cl     99 CCL4  -0.0812 
 543 CL     -31.1721   -15.9298    -1.4050 Cl     99 CCL4  -0.0812 
 544 CL     -15.4773    -9.5010     0.5930 Cl    100 CCL4  -0.0812 
 545 C      -13.8798    -9.8696    -0.0855 C.3   100 CCL4   0.3246 
 546 CL     -13.2318    -8.3719    -0.9406 Cl    100 CCL4  -0.0812 
 547 CL     -14.0675   -11.1901    -1.2164 Cl    100 CCL4  -0.0812 
 548 CL     -12.7272   -10.3616     1.2640 Cl    100 CCL4  -0.0812 
 549 CL     -18.7482     1.8671    -9.4268 Cl    101 CCL4  -0.0812 
 550 C      -17.4780     0.6218    -9.5774 C.3   101 CCL4   0.3246 
 551 CL     -16.4962     0.6167    -8.0793 Cl    101 CCL4  -0.0812 
 552 CL     -16.6237     1.0073   -11.1548 Cl    101 CCL4  -0.0812 
 553 CL     -18.1944    -1.0141    -9.6680 Cl    101 CCL4  -0.0812 
 554 CL     -18.8857    -1.4168    -3.2633 Cl    102 CCL4  -0.0812 
 555 C      -17.2232    -2.0138    -3.4301 C.3   102 CCL4   0.3246 
 556 CL     -16.6419    -1.3563    -5.0128 Cl    102 CCL4  -0.0812 
 557 CL     -17.0969    -3.7427    -3.2717 Cl    102 CCL4  -0.0812 
 558 CL     -16.2671    -1.2514    -2.0730 Cl    102 CCL4  -0.0812 
 559 CL     -15.1371   -16.5350    -0.9993 Cl    103 CCL4  -0.0812 
 560 C      -16.1670   -15.7596    -2.2544 C.3   103 CCL4   0.3246 
 561 CL     -17.2173   -16.9903    -2.9541 Cl    103 CCL4  -0.0812 
 562 CL     -15.2124   -14.9569    -3.5031 Cl    103 CCL4  -0.0812 
 563 CL     -17.1978   -14.5629    -1.3006 Cl    103 CCL4  -0.0812 
 564 CL     -19.7378   -20.3621    -4.2637 Cl    104 CCL4  -0.0812 
 565 C      -18.6235   -20.9957    -5.5660 C.3   104 CCL4   0.3246 
 566 CL     -18.4169   -22.7283    -5.3621 Cl    104 CCL4  -0.0812 
 567 CL     -17.1781   -20.0930    -5.2036 Cl    104 CCL4  -0.0812 
 568 CL     -19.2795   -20.4961    -7.1287 Cl    104 CCL4  -0.0812 
 569 CL     -12.4401   -17.0209    -2.8985 Cl    105 CCL4  -0.0812 
 570 C      -12.4457   -18.6680    -3.3216 C.3   105 CCL4   0.3246 
 571 CL     -11.9815   -19.5902    -1.8232 Cl    105 CCL4  -0.0812 
 572 CL     -11.2916   -19.0411    -4.5297 Cl    105 CCL4  -0.0812 
 573 CL     -14.0461   -19.1627    -3.7349 Cl    105 CCL4  -0.0812 
 574 CL     -17.1817   -20.2766    -0.8389 Cl    106 CCL4  -0.0812 
 575 C      -16.5132   -21.9341    -1.0942 C.3   106 CCL4   0.3246 
 576 CL     -14.9406   -21.8435    -1.8420 Cl    106 CCL4  -0.0812 
 577 CL     -17.5713   -22.8836    -2.1655 Cl    106 CCL4  -0.0812 
 578 CL     -16.2450   -22.6295     0.5644 Cl    106 CCL4  -0.0812 
 579 CL     -13.5947    -7.7928    -5.5469 Cl    107 CCL4  -0.0812 
 580 C      -14.9416    -7.4506    -4.5152 C.3   107 CCL4   0.3246 
 581 CL     -16.2722    -6.7393    -5.4417 Cl    107 CCL4  -0.0812 
 582 CL     -14.4361    -6.0154    -3.5806 Cl    107 CCL4  -0.0812 
 583 CL     -15.6314    -8.7906    -3.4825 Cl    107 CCL4  -0.0812 
 584 CL     -18.9078    -3.6554     1.9717 Cl    108 CCL4  -0.0812 
 585 C      -19.9368    -2.3991     1.3775 C.3   108 CCL4   0.3246 
 586 CL     -18.8903    -1.3800     0.3581 Cl    108 CCL4  -0.0812 
 587 CL     -20.7541    -1.5470     2.7922 Cl    108 CCL4  -0.0812 
 588 CL     -21.2916    -3.0796     0.3927 Cl    108 CCL4  -0.0812 
 589 CL     -20.3398    -9.5177   -19.1601 Cl    109 CCL4  -0.0812 
 590 C      -20.7651    -7.7198   -19.5314 C.3   109 CCL4   0.3246 
 591 CL     -19.8554    -6.6031   -18.5205 Cl    109 CCL4  -0.0812 
 592 CL     -22.4995    -7.4990   -19.1127 Cl    109 CCL4  -0.0812 
 593 CL     -20.3689    -7.3648   -21.1965 Cl    109 CCL4  -0.0812 
 594 CL     -15.7179    -6.7089   -11.2120 Cl    110 CCL4  -0.0812 
 595 C      -16.7355    -7.9710   -10.4203 C.3   110 CCL4   0.3246 
 596 CL     -16.3856    -8.0658    -8.6626 Cl    110 CCL4  -0.0812 
 597 CL     -16.4199    -9.5713   -11.1039 Cl    110 CCL4  -0.0812 
 598 CL     -18.4995    -7.6687   -10.7573 Cl    110 CCL4  -0.0812 
 599 CL     -21.4480    -4.7604   -15.8298 Cl    111 CCL4  -0.0812 
 600 C      -21.0157    -6.0261   -14.6871 C.3   111 CCL4   0.3246 
 601 CL     -22.3175    -5.9980   -13.5448 Cl    111 CCL4  -0.0812 
 602 CL     -19.4441    -5.6636   -13.7906 Cl    111 CCL4  -0.0812 
 603 CL     -20.7565    -7.5430   -15.4621 Cl    111 CCL4  -0.0812 
 604 CL     -21.1466    -1.3398   -14.6406 Cl    112 CCL4  -0.0812 
 605 C      -21.5215    -1.1329   -12.9582 C.3   112 CCL4   0.3246 
 606 CL     -20.5780     0.2911   -12.4442 Cl    112 CCL4  -0.0812 
 607 CL     -21.0143    -2.5671   -12.0828 Cl    112 CCL4  -0.0812 
 608 CL     -23.2017    -0.8289   -12.5806 Cl    112 CCL4  -0.0812 
 609 CL      13.4680   -10.4554     9.3818 Cl    113 CCL4  -0.0812 
 610 C       13.2337    -8.8140    10.0460 C.3   113 CCL4   0.3246 
 611 CL      11.7389    -8.1870     9.3377 Cl    113 CCL4  -0.0812 
 612 CL      14.6567    -7.7574     9.8235 Cl    113 CCL4  -0.0812 
 613 CL      13.0220    -9.0247    11.8094 Cl    113 CCL4  -0.0812 
 614 CL     -21.9043   -12.4097     6.2410 Cl    114 CCL4  -0.0812 
 615 C      -21.4029   -12.4098     7.8614 C.3   114 CCL4   0.3246 
 616 CL     -21.7394   -13.9054     8.6462 Cl    114 CCL4  -0.0812 
 617 CL     -21.9611   -11.0544     8.7476 Cl    114 CCL4  -0.0812 
 618 CL     -19.6109   -12.2833     7.8392 Cl    114 CCL4  -0.0812 
 619 CL     -24.0196   -21.5792    12.0286 Cl    115 CCL4  -0.0812 
 620 C      -24.6174   -20.5613    10.6335 C.3   115 CCL4   0.3246 
 621 CL     -25.8559   -21.3401     9.5509 Cl    115 CCL4  -0.0812 
 622 CL     -23.2398   -20.0006     9.6344 Cl    115 CCL4  -0.0812 
 623 CL     -25.3482   -19.0226    11.3740 Cl    115 CCL4  -0.0812 
 624 CL     -29.7512   -10.1031    11.2755 Cl    116 CCL4  -0.0812 
 625 C      -29.4650   -11.8581    11.4027 C.3   116 CCL4   0.3246 
 626 CL     -29.7097   -12.3733    13.0934 Cl    116 CCL4  -0.0812 
 627 CL     -27.9258   -12.4575    10.8392 Cl    116 CCL4  -0.0812 
 628 CL     -30.7190   -12.6713    10.4348 Cl    116 CCL4  -0.0812 
 629 CL     -25.9794    24.0186   -21.2090 Cl    117 CCL4  -0.0812 
 630 C      -24.7969    24.4268   -19.9165 C.3   117 CCL4   0.3246 
 631 CL     -24.3287    22.8760   -19.2675 Cl    117 CCL4  -0.0812 
 632 CL     -25.7528    25.3035   -18.6954 Cl    117 CCL4  -0.0812 
 633 CL     -23.4428    25.3245   -20.4802 Cl    117 CCL4  -0.0812 
 634 CL     -28.3018    -1.2211    11.4578 Cl    118 CCL4  -0.0812 
 635 C      -27.7676     0.3403    10.7724 C.3   118 CCL4   0.3246 
 636 CL     -28.6958     1.7553    11.3062 Cl    118 CCL4  -0.0812 
 637 CL     -27.6210     0.3506     9.0249 Cl    118 CCL4  -0.0812 
 638 CL     -26.1341     0.6061    11.4296 Cl    118 CCL4  -0.0812 
 639 CL     -24.3054   -13.0208    11.1082 Cl    119 CCL4  -0.0812 
 640 C      -24.8139   -14.7481    11.3243 C.3   119 CCL4   0.3246 
 641 CL     -23.3869   -15.6915    11.7885 Cl    119 CCL4  -0.0812 
 642 CL     -25.4751   -15.4308     9.8719 Cl    119 CCL4  -0.0812 
 643 CL     -25.9096   -14.8634    12.7753 Cl    119 CCL4  -0.0812 
 644 CL     -29.4111   -20.8984     7.2116 Cl    120 CCL4  -0.0812 
 645 C      -31.1924   -21.4243     7.3609 C.3   120 CCL4   0.3246 
 646 CL     -31.2078   -23.1174     7.5672 Cl    120 CCL4  -0.0812 
 647 CL     -32.1617   -20.9926     5.8732 Cl    120 CCL4  -0.0812 
 648 CL     -31.8539   -20.4945     8.7838 Cl    120 CCL4  -0.0812 
 649 CL     -25.2218    26.0417    15.1154 Cl    121 CCL4  -0.0812 
 650 C      -25.7227    24.4059    15.4708 C.3   121 CCL4   0.3246 
 651 CL     -24.4901    23.2754    14.9276 Cl    121 CCL4  -0.0812 
 652 CL     -27.1601    23.9967    14.5166 Cl    121 CCL4  -0.0812 
 653 CL     -26.0521    24.2430    17.1572 Cl    121 CCL4  -0.0812 
 654 CL     -28.8989   -20.2640    11.0535 Cl    122 CCL4  -0.0812 
 655 C      -29.6428   -19.7734    12.6048 C.3   122 CCL4   0.3246 
 656 CL     -28.4189   -19.2847    13.6775 Cl    122 CCL4  -0.0812 
 657 CL     -30.5197   -21.1870    13.2207 Cl    122 CCL4  -0.0812 
 658 CL     -30.8334   -18.4308    12.2999 Cl    122 CCL4  -0.0812 
 659 CL     -12.7551    -4.6018     8.5673 Cl    123 CCL4  -0.0812 
 660 C      -12.8004    -2.9817     7.8850 C.3   123 CCL4   0.3246 
 661 CL     -12.5554    -1.7073     9.2422 Cl    123 CCL4  -0.0812 
 662 CL     -14.4159    -2.5859     7.2298 Cl    123 CCL4  -0.0812 
 663 CL     -11.6340    -2.5560     6.6292 Cl    123 CCL4  -0.0812 
 664 CL     -20.7750     1.5113     7.2002 Cl    124 CCL4  -0.0812 
 665 C      -22.5739     1.0957     7.1959 C.3   124 CCL4   0.3246 
 666 CL     -22.7842    -0.6036     6.5882 Cl    124 CCL4  -0.0812 
 667 CL     -23.4169     2.2174     6.1449 Cl    124 CCL4  -0.0812 
 668 CL     -23.2449     1.3787     8.8605 Cl    124 CCL4  -0.0812 
 669 CL     -28.8582    -0.8300     6.1616 Cl    125 CCL4  -0.0812 
 670 C      -27.3367    -0.5409     5.3037 C.3   125 CCL4   0.3246 
 671 CL     -27.0004     1.2310     5.7428 Cl    125 CCL4  -0.0812 
 672 CL     -27.5711    -0.6087     3.5534 Cl    125 CCL4  -0.0812 
 673 CL     -25.9764    -1.6269     5.6869 Cl    125 CCL4  -0.0812 
 674 CL     -10.2861    24.6717     7.4418 Cl    126 CCL4  -0.0812 
 675 C      -10.4547    23.9441     5.8277 C.3   126 CCL4   0.3246 
 676 CL     -11.8175    22.7797     5.7314 Cl    126 CCL4  -0.0812 
 677 CL      -8.8613    23.3117     5.3998 Cl    126 CCL4  -0.0812 
 678 CL     -10.7999    25.3309     4.7228 Cl    126 CCL4  -0.0812 
 679 CL     -19.8486   -14.8228     1.5672 Cl    127 CCL4  -0.0812 
 680 C      -18.8478   -16.1489     2.3210 C.3   127 CCL4   0.3246 
 681 CL     -18.4306   -17.2275     0.9772 Cl    127 CCL4  -0.0812 
 682 CL     -19.7840   -16.9456     3.5585 Cl    127 CCL4  -0.0812 
 683 CL     -17.4202   -15.4198     3.0643 Cl    127 CCL4  -0.0812 
 684 CL     -22.6744   -15.5476     5.3228 Cl    128 CCL4  -0.0812 
 685 C      -22.9220   -17.1184     6.0886 C.3   128 CCL4   0.3246 
 686 CL     -24.3007   -17.0822     7.1720 Cl    128 CCL4  -0.0812 
 687 CL     -21.4649   -17.6044     7.0337 Cl    128 CCL4  -0.0812 
 688 CL     -23.1447   -18.3985     4.8096 Cl    128 CCL4  -0.0812 
 689 CL     -29.4758   -17.3225     2.1416 Cl    129 CCL4  -0.0812 
 690 C      -29.0041   -17.9158     3.7521 C.3   129 CCL4   0.3246 
 691 CL     -30.1842   -17.3332     4.9112 Cl    129 CCL4  -0.0812 
 692 CL     -27.4671   -17.1724     4.2044 Cl    129 CCL4  -0.0812 
 693 CL     -28.7992   -19.6679     3.6777 Cl    129 CCL4  -0.0812 
 694 CL     -25.8772   -10.9331     5.3749 Cl    130 CCL4  -0.0812 
 695 C      -26.2632   -12.3883     6.4229 C.3   130 CCL4   0.3246 
 696 CL     -27.9668   -12.3630     7.0334 Cl    130 CCL4  -0.0812 
 697 CL     -25.1369   -12.5328     7.8215 Cl    130 CCL4  -0.0812 
 698 CL     -25.8800   -13.7917     5.3939 Cl    130 CCL4  -0.0812 
 699 CL     -33.0464   -14.4078     4.5617 Cl    131 CCL4  -0.0812 
 700 C      -31.8011   -13.4741     5.3977 C.3   131 CCL4   0.3246 
 701 CL     -31.9911   -13.9293     7.1950 Cl    131 CCL4  -0.0812 
 702 CL     -32.1751   -11.6796     5.5018 Cl    131 CCL4  -0.0812 
 703 CL     -30.2900   -13.9803     4.8078 Cl    131 CCL4  -0.0812 
 704 CL     -28.0261   -18.0023     8.2913 Cl    132 CCL4  -0.0812 
 705 C      -29.0402   -16.7629     9.0152 C.3   132 CCL4   0.3246 
 706 CL     -28.7109   -15.2379     8.1716 Cl    132 CCL4  -0.0812 
 707 CL     -28.4193   -16.5190    10.7333 Cl    132 CCL4  -0.0812 
 708 CL     -30.7157   -17.2895     8.9879 Cl    132 CCL4  -0.0812 
 709 CL      -8.7983   -12.5742    12.2051 Cl    133 CCL4  -0.0812 
 710 C       -9.1276   -14.2017    11.5484 C.3   133 CCL4   0.3246 
 711 CL     -10.3785   -15.0407    12.4348 Cl    133 CCL4  -0.0812 
 712 CL      -7.7352   -15.2046    11.7821 Cl    133 CCL4  -0.0812 
 713 CL      -9.5404   -13.9530     9.7977 Cl    133 CCL4  -0.0812 
 714 CL      -8.5134   -20.5945    12.0038 Cl    134 CCL4  -0.0812 
 715 C       -9.9789   -19.7186    11.4791 C.3   134 CCL4   0.3246 
 716 CL      -9.4139   -18.4749    10.3264 Cl    134 CCL4  -0.0812 
 717 CL     -10.8711   -18.9698    12.7779 Cl    134 CCL4  -0.0812 
 718 CL     -11.0804   -20.8049    10.4939 Cl    134 CCL4  -0.0812 
 719 CL     -10.5882   -13.3780    17.0008 Cl    135 CCL4  -0.0812 
 720 C      -11.3448   -14.9459    17.4807 C.3   135 CCL4   0.3246 
 721 CL     -11.4529   -15.9994    16.0254 Cl    135 CCL4  -0.0812 
 722 CL     -13.0248   -14.6035    18.1151 Cl    135 CCL4  -0.0812 
 723 CL     -10.3985   -15.8504    18.7786 Cl    135 CCL4  -0.0812 
 724 CL      15.1155     1.1033    10.6601 Cl    136 CCL4  -0.0812 
 725 C       13.7585     0.3405    11.5495 C.3   136 CCL4   0.3246 
 726 CL      12.2397     0.9231    10.7872 Cl    136 CCL4  -0.0812 
 727 CL      13.7676     0.9318    13.2000 Cl    136 CCL4  -0.0812 
 728 CL      14.0269    -1.3969    11.4544 Cl    136 CCL4  -0.0812 
 729 CL     -30.2630     1.6893     3.8832 Cl    137 CCL4  -0.0812 
 730 C      -30.9904     0.9219     2.3817 C.3   137 CCL4   0.3246 
 731 CL     -32.2936     1.9313     1.6926 Cl    137 CCL4  -0.0812 
 732 CL     -31.1754    -0.8133     2.5622 Cl    137 CCL4  -0.0812 
 733 CL     -29.5180     1.0412     1.2385 Cl    137 CCL4  -0.0812 
 734 CL     -10.9862   -18.9493     6.8939 Cl    138 CCL4  -0.0812 
 735 C      -10.4421   -17.4402     6.1660 C.3   138 CCL4   0.3246 
 736 CL      -9.1711   -16.6595     7.2095 Cl    138 CCL4  -0.0812 
 737 CL     -11.7542   -16.1976     6.0709 Cl    138 CCL4  -0.0812 
 738 CL      -9.7739   -17.5511     4.5985 Cl    138 CCL4  -0.0812 
 739 CL     -29.4139   -18.5307    19.6756 Cl    139 CCL4  -0.0812 
 740 C      -28.9416   -19.9967    18.6858 C.3   139 CCL4   0.3246 
 741 CL     -30.4857   -20.5134    17.9330 Cl    139 CCL4  -0.0812 
 742 CL     -28.1641   -21.3169    19.6648 Cl    139 CCL4  -0.0812 
 743 CL     -27.8622   -19.4117    17.4286 Cl    139 CCL4  -0.0812 
 744 CL      -8.2727   -19.0802    18.0099 Cl    140 CCL4  -0.0812 
 745 C       -9.2354   -20.4589    17.2898 C.3   140 CCL4   0.3246 
 746 CL      -8.3924   -21.1025    15.8360 Cl    140 CCL4  -0.0812 
 747 CL     -10.8033   -19.8272    16.8110 Cl    140 CCL4  -0.0812 
 748 CL      -9.5567   -21.8421    18.4515 Cl    140 CCL4  -0.0812 
 749 CL      13.4654    25.6733    21.9588 Cl    141 CCL4  -0.0812 
 750 C       14.2324    24.0937    21.5348 C.3   141 CCL4   0.3246 
 751 CL      12.8247    23.0473    21.1880 Cl    141 CCL4  -0.0812 
 752 CL      15.0628    23.6095    23.0157 Cl    141 CCL4  -0.0812 
 753 CL      15.3923    24.0277    20.2139 Cl    141 CCL4  -0.0812 
 754 CL     -23.6546   -14.9690    15.8352 Cl    142 CCL4  -0.0812 
 755 C      -22.7537   -13.8963    16.9089 C.3   142 CCL4   0.3246 
 756 CL     -21.5938   -12.8089    16.1004 Cl    142 CCL4  -0.0812 
 757 CL     -21.7817   -14.9809    18.1569 Cl    142 CCL4  -0.0812 
 758 CL     -23.8597   -12.9308    17.8886 Cl    142 CCL4  -0.0812 
 759 CL     -24.7319   -11.6494    14.6536 Cl    143 CCL4  -0.0812 
 760 C      -26.3059   -11.3717    15.5231 C.3   143 CCL4   0.3246 
 761 CL     -26.0326   -10.4237    16.9554 Cl    143 CCL4  -0.0812 
 762 CL     -27.0072   -12.9890    15.9686 Cl    143 CCL4  -0.0812 
 763 CL     -27.3357   -10.4897    14.4713 Cl    143 CCL4  -0.0812 
 764 CL     -19.7232   -19.4954    14.2166 Cl    144 CCL4  -0.0812 
 765 C      -21.2616   -19.0710    14.8051 C.3   144 CCL4   0.3246 
 766 CL     -22.3435   -18.7522    13.3626 Cl    144 CCL4  -0.0812 
 767 CL     -21.1719   -17.6211    15.7428 Cl    144 CCL4  -0.0812 
 768 CL     -21.9964   -20.3539    15.7325 Cl    144 CCL4  -0.0812 
 769 CL     -26.4242    -1.9457    20.6255 Cl    145 CCL4  -0.0812 
 770 C      -27.0132    -0.3358    21.3435 C.3   145 CCL4   0.3246 
 771 CL     -26.8827    -0.5816    23.0890 Cl    145 CCL4  -0.0812 
 772 CL     -28.5940     0.2428    20.9479 Cl    145 CCL4  -0.0812 
 773 CL     -25.7852     0.9501    20.9220 Cl    145 CCL4  -0.0812 
 774 CL     -22.9064   -18.1458    20.6268 Cl    146 CCL4  -0.0812 
 775 C      -23.9368   -19.1273    19.6648 C.3   146 CCL4   0.3246 
 776 CL     -24.4154   -18.2562    18.1927 Cl    146 CCL4  -0.0812 
 777 CL     -25.3472   -19.4841    20.6346 Cl    146 CCL4  -0.0812 
 778 CL     -23.1374   -20.6104    19.2510 Cl    146 CCL4  -0.0812 
 779 CL     -18.3471   -10.5567    18.4857 Cl    147 CCL4  -0.0812 
 780 C      -17.7498   -11.7590    19.5923 C.3   147 CCL4   0.3246 
 781 CL     -18.5079   -13.3286    19.1881 Cl    147 CCL4  -0.0812 
 782 CL     -18.2115   -11.3519    21.2949 Cl    147 CCL4  -0.0812 
 783 CL     -15.9861   -11.9688    19.5792 Cl    147 CCL4  -0.0812 
 784 CL     -28.6383   -15.2235    21.4003 Cl    148 CCL4  -0.0812 
 785 C      -27.1534   -14.9361    20.4571 C.3   148 CCL4   0.3246 
 786 CL     -27.5243   -15.2704    18.7717 Cl    148 CCL4  -0.0812 
 787 CL     -25.9508   -16.0030    21.1068 Cl    148 CCL4  -0.0812 
 788 CL     -26.7273   -13.1689    20.5631 Cl    148 CCL4  -0.0812 
 789 CL     -12.2573   -10.7118    20.8914 Cl    149 CCL4  -0.0812 
 790 C      -10.9081   -11.5176    21.7914 C.3   149 CCL4   0.3246 
 791 CL      -9.3103   -11.1271    20.9688 Cl    149 CCL4  -0.0812 
 792 CL     -11.1592   -13.2761    21.7287 Cl    149 CCL4  -0.0812 
 793 CL     -10.9017   -10.8316    23.4563 Cl    149 CCL4  -0.0812 
 794 CL     -30.3364   -15.5010    14.6752 Cl    150 CCL4  -0.0812 
 795 C      -31.4316   -16.4633    15.6102 C.3   150 CCL4   0.3246 
 796 CL     -33.1180   -16.1707    15.1447 Cl    150 CCL4  -0.0812 
 797 CL     -31.3550   -15.9024    17.2450 Cl    150 CCL4  -0.0812 
 798 CL     -31.0140   -18.1761    15.4999 Cl    150 CCL4  -0.0812 
 799 CL     -13.8220    25.5278    13.2462 Cl    151 CCL4  -0.0812 
 800 C      -12.8197    24.0218    13.4452 C.3   151 CCL4   0.3246 
 801 CL     -13.4772    23.2739    14.9340 Cl    151 CCL4  -0.0812 
 802 CL     -11.0987    24.4744    13.9067 Cl    151 CCL4  -0.0812 
 803 CL     -12.8891    23.0400    11.9393 Cl    151 CCL4  -0.0812 
 804 CL      -9.7526    -2.2518    17.7631 Cl    152 CCL4  -0.0812 
 805 C       -9.3066    -1.4051    16.2728 C.3   152 CCL4   0.3246 
 806 CL      -8.6301     0.1882    16.7656 Cl    152 CCL4  -0.0812 
 807 CL     -10.9019    -1.1483    15.5231 Cl    152 CCL4  -0.0812 
 808 CL      -8.2350    -2.2495    15.1138 Cl    152 CCL4  -0.0812 
 809 CL     -24.6892    -7.2871     9.0874 Cl    153 CCL4  -0.0812 
 810 C      -25.3795    -8.4172    10.2838 C.3   153 CCL4   0.3246 
 811 CL     -26.5156    -9.5126     9.2849 Cl    153 CCL4  -0.0812 
 812 CL     -26.3323    -7.3684    11.4348 Cl    153 CCL4  -0.0812 
 813 CL     -24.2107    -9.4863    11.0481 Cl    153 CCL4  -0.0812 
 814 CL     -25.3854    -3.2848    16.4690 Cl    154 CCL4  -0.0812 
 815 C      -25.7735    -3.6003    14.7121 C.3   154 CCL4   0.3246 
 816 CL     -26.9726    -5.0217    14.6953 Cl    154 CCL4  -0.0812 
 817 CL     -24.2304    -4.1875    13.9491 Cl    154 CCL4  -0.0812 
 818 CL     -26.4176    -2.2190    13.9623 Cl    154 CCL4  -0.0812 
 819 CL     -29.2992    -4.5416    11.8848 Cl    155 CCL4  -0.0812 
 820 C      -30.4238    -5.3326    12.9812 C.3   155 CCL4   0.3246 
 821 CL     -30.0248    -7.0140    13.2374 Cl    155 CCL4  -0.0812 
 822 CL     -32.0680    -5.2102    12.2347 Cl    155 CCL4  -0.0812 
 823 CL     -30.4327    -4.5728    14.6056 Cl    155 CCL4  -0.0812 
 824 CL     -14.6403    -8.0048     5.0556 Cl    156 CCL4  -0.0812 
 825 C      -14.7035    -6.5836     3.9818 C.3   156 CCL4   0.3246 
 826 CL     -13.7106    -6.7581     2.5408 Cl    156 CCL4  -0.0812 
 827 CL     -14.0154    -5.2484     5.0478 Cl    156 CCL4  -0.0812 
 828 CL     -16.3219    -6.2475     3.5325 Cl    156 CCL4  -0.0812 
 829 CL     -24.5717    -4.3094     7.5222 Cl    157 CCL4  -0.0812 
 830 C      -25.5632    -3.4792     8.8012 C.3   157 CCL4   0.3246 
 831 CL     -25.4854    -4.1572    10.3987 Cl    157 CCL4  -0.0812 
 832 CL     -27.2891    -3.3838     8.4183 Cl    157 CCL4  -0.0812 
 833 CL     -24.9532    -1.7836     8.8358 Cl    157 CCL4  -0.0812 
 834 CL     -30.1668     1.1248    16.6622 Cl    158 CCL4  -0.0812 
 835 C      -29.6216    -0.5663    16.3703 C.3   158 CCL4   0.3246 
 836 CL     -30.5816    -1.6651    17.3477 Cl    158 CCL4  -0.0812 
 837 CL     -27.9568    -0.8414    16.7709 Cl    158 CCL4  -0.0812 
 838 CL     -29.8130    -0.9989    14.6921 Cl    158 CCL4  -0.0812 
 839 CL     -11.1487    -4.4004     3.6907 Cl    159 CCL4  -0.0812 
 840 C      -10.5368    -3.1279     2.6301 C.3   159 CCL4   0.3246 
 841 CL      -9.0334    -3.6640     1.8510 Cl    159 CCL4  -0.0812 
 842 CL     -10.1190    -1.5988     3.4690 Cl    159 CCL4  -0.0812 
 843 CL     -11.7498    -2.8572     1.3496 Cl    159 CCL4  -0.0812 
 844 CL     -23.1211    -5.8569     2.1100 Cl    160 CCL4  -0.0812 
 845 C      -23.7584    -4.7683     3.3987 C.3   160 CCL4   0.3246 
 846 CL     -25.0808    -5.4901     4.3813 Cl    160 CCL4  -0.0812 
 847 CL     -24.3043    -3.3174     2.5715 Cl    160 CCL4  -0.0812 
 848 CL     -22.4022    -4.2371     4.3506 Cl    160 CCL4  -0.0812 
 849 CL     -29.4043   -11.0540     3.3933 Cl    161 CCL4  -0.0812 
 850 C      -28.8920    -9.6022     2.6315 C.3   161 CCL4   0.3246 
 851 CL     -29.0924    -8.2587     3.7131 Cl    161 CCL4  -0.0812 
 852 CL     -29.7374    -9.1922     1.1573 Cl    161 CCL4  -0.0812 
 853 CL     -27.1056    -9.6371     2.3160 Cl    161 CCL4  -0.0812 
 854 CL     -28.9359    -3.7868     4.1397 Cl    162 CCL4  -0.0812 
 855 C      -28.9904    -4.3631     2.4956 C.3   162 CCL4   0.3246 
 856 CL     -28.8837    -3.0532     1.3038 Cl    162 CCL4  -0.0812 
 857 CL     -30.5324    -5.1136     2.3520 Cl    162 CCL4  -0.0812 
 858 CL     -27.5978    -5.3949     2.1615 Cl    162 CCL4  -0.0812 
 859 CL     -32.0033    -2.5537     5.8839 Cl    163 CCL4  -0.0812 
 860 C      -32.4058    -2.6811     7.6928 C.3   163 CCL4   0.3246 
 861 CL     -33.2160    -4.2948     7.8793 Cl    163 CCL4  -0.0812 
 862 CL     -33.7297    -1.5215     8.0312 Cl    163 CCL4  -0.0812 
 863 CL     -30.9673    -2.6682     8.6498 Cl    163 CCL4  -0.0812 
 864 CL     -29.6066    -9.0965     7.6366 Cl    164 CCL4  -0.0812 
 865 C      -29.3460    -7.3839     7.5416 C.3   164 CCL4   0.3246 
 866 CL     -30.4679    -6.5292     6.5774 Cl    164 CCL4  -0.0812 
 867 CL     -27.6225    -7.1863     6.7703 Cl    164 CCL4  -0.0812 
 868 CL     -29.1071    -6.7020     9.2001 Cl    164 CCL4  -0.0812 
 869 CL      13.5605    -8.3644     6.0684 Cl    165 CCL4  -0.0812 
 870 C       13.2292    -7.5959     4.4952 C.3   165 CCL4   0.3246 
 871 CL      11.5901    -7.7966     3.9631 Cl    165 CCL4  -0.0812 
 872 CL      14.2304    -8.2601     3.2421 Cl    165 CCL4  -0.0812 
 873 CL      13.4543    -5.8686     4.6471 Cl    165 CCL4  -0.0812 
 874 CL     -11.0184   -10.7963    14.9159 Cl    166 CCL4  -0.0812 
 875 C      -11.9805   -10.0053    16.1774 C.3   166 CCL4   0.3246 
 876 CL     -10.9491    -9.3899    17.4797 Cl    166 CCL4  -0.0812 
 877 CL     -13.1959   -10.9871    16.9151 Cl    166 CCL4  -0.0812 
 878 CL     -12.6903    -8.4046    15.4203 Cl    166 CCL4  -0.0812 
 879 CL     -10.2484    -5.2754    13.5959 Cl    167 CCL4  -0.0812 
 880 C      -11.0618    -4.6513    12.2400 C.3   167 CCL4   0.3246 
 881 CL     -12.6423    -5.4710    12.1339 Cl    167 CCL4  -0.0812 
 882 CL     -10.3334    -4.9691    10.7391 Cl    167 CCL4  -0.0812 
 883 CL     -11.2808    -2.9519    12.5367 Cl    167 CCL4  -0.0812 
 884 CL     -20.8947   -11.1265     2.7011 Cl    168 CCL4  -0.0812 
 885 C      -22.5963   -11.0684     2.4157 C.3   168 CCL4   0.3246 
 886 CL     -23.3023   -12.5317     2.8746 Cl    168 CCL4  -0.0812 
 887 CL     -22.9321   -10.6179     0.6758 Cl    168 CCL4  -0.0812 
 888 CL     -23.2511    -9.7001     3.4325 Cl    168 CCL4  -0.0812 
 889 CL     -23.8008    -6.4477    16.9487 Cl    169 CCL4  -0.0812 
 890 C      -23.1431    -7.6609    15.8237 C.3   169 CCL4   0.3246 
 891 CL     -24.2855    -8.0730    14.5742 Cl    169 CCL4  -0.0812 
 892 CL     -22.6488    -9.0760    16.6571 Cl    169 CCL4  -0.0812 
 893 CL     -21.8034    -6.9505    14.9443 Cl    169 CCL4  -0.0812 
 894 CL     -19.2793    -4.5804    15.4180 Cl    170 CCL4  -0.0812 
 895 C      -19.7745    -4.7836    17.2224 C.3   170 CCL4   0.3246 
 896 CL     -21.4519    -4.0851    17.5173 Cl    170 CCL4  -0.0812 
 897 CL     -18.5480    -3.8381    18.2055 Cl    170 CCL4  -0.0812 
 898 CL     -19.6795    -6.4863    17.7024 Cl    170 CCL4  -0.0812 
 899 CL     -28.3899    -4.3523    18.4559 Cl    171 CCL4  -0.0812 
 900 C      -28.7484    -6.1367    18.4713 C.3   171 CCL4   0.3246 
 901 CL     -29.8956    -6.7102    17.2922 Cl    171 CCL4  -0.0812 
 902 CL     -29.5120    -6.3704    20.1231 Cl    171 CCL4  -0.0812 
 903 CL     -27.2609    -7.1450    18.4141 Cl    171 CCL4  -0.0812 
 904 CL     -22.0628     1.3310    17.9995 Cl    172 CCL4  -0.0812 
 905 C      -21.9454    -0.4295    17.8501 C.3   172 CCL4   0.3246 
 906 CL     -20.3360    -0.9434    18.2714 Cl    172 CCL4  -0.0812 
 907 CL     -22.0259    -0.8822    16.1179 Cl    172 CCL4  -0.0812 
 908 CL     -23.1047    -1.2072    18.8983 Cl    172 CCL4  -0.0812 
 909 CL     -15.7416    -4.2355    16.1743 Cl    173 CCL4  -0.0812 
 910 C      -14.1077    -3.8452    16.7582 C.3   173 CCL4   0.3246 
 911 CL     -13.9913    -2.0731    17.0656 Cl    173 CCL4  -0.0812 
 912 CL     -12.8851    -4.3564    15.5414 Cl    173 CCL4  -0.0812 
 913 CL     -13.8199    -4.5756    18.3422 Cl    173 CCL4  -0.0812 
 914 CL      13.6631    -7.2577    19.2518 Cl    174 CCL4  -0.0812 
 915 C       13.5722    -6.3950    17.6946 C.3   174 CCL4   0.3246 
 916 CL      14.4005    -4.7541    17.6906 Cl    174 CCL4  -0.0812 
 917 CL      11.8451    -5.8800    17.5202 Cl    174 CCL4  -0.0812 
 918 CL      14.1696    -7.3609    16.2939 Cl    174 CCL4  -0.0812 
 919 CL     -32.3252   -10.7392    18.0217 Cl    175 CCL4  -0.0812 
 920 C      -31.2414   -11.3372    16.7527 C.3   175 CCL4   0.3246 
 921 CL     -32.1878   -12.6688    16.0486 Cl    175 CCL4  -0.0812 
 922 CL     -29.9093   -12.1892    17.5660 Cl    175 CCL4  -0.0812 
 923 CL     -30.7337   -10.0859    15.5849 Cl    175 CCL4  -0.0812 
 924 CL     -16.7300    -9.1452     7.5812 Cl    176 CCL4  -0.0812 
 925 C      -16.1990    -7.7978     8.5615 C.3   176 CCL4   0.3246 
 926 CL     -16.4460    -6.2308     7.6637 Cl    176 CCL4  -0.0812 
 927 CL     -14.4467    -8.0286     8.8199 Cl    176 CCL4  -0.0812 
 928 CL     -17.1333    -7.7458    10.1347 Cl    176 CCL4  -0.0812 
 929 CL     -18.5638   -14.9519    10.4756 Cl    177 CCL4  -0.0812 
 930 C      -19.1139   -16.3238    11.4333 C.3   177 CCL4   0.3246 
 931 CL     -20.1004   -15.7721    12.7986 Cl    177 CCL4  -0.0812 
 932 CL     -17.6842   -17.1236    12.0349 Cl    177 CCL4  -0.0812 
 933 CL     -20.1508   -17.3927    10.3661 Cl    177 CCL4  -0.0812 
 934 CL     -13.7227   -12.8619     6.6732 Cl    178 CCL4  -0.0812 
 935 C      -12.2509   -11.9039     6.5689 C.3   178 CCL4   0.3246 
 936 CL     -10.7704   -12.9197     6.7036 Cl    178 CCL4  -0.0812 
 937 CL     -12.1649   -10.6173     7.7527 Cl    178 CCL4  -0.0812 
 938 CL     -12.1302   -11.0736     4.9686 Cl    178 CCL4  -0.0812 
 939 CL     -14.7235   -18.1791    10.4278 Cl    179 CCL4  -0.0812 
 940 C      -14.0003   -16.5964    10.4656 C.3   179 CCL4   0.3246 
 941 CL     -13.6679   -16.2299    12.2533 Cl    179 CCL4  -0.0812 
 942 CL     -15.1379   -15.3312     9.9410 Cl    179 CCL4  -0.0812 
 943 CL     -12.5160   -16.4018     9.5365 Cl    179 CCL4  -0.0812 
 944 CL     -13.0973    -9.3956    11.7396 Cl    180 CCL4  -0.0812 
 945 C      -13.6355   -11.1565    11.6549 C.3   180 CCL4   0.3246 
 946 CL     -15.0882   -11.1548    10.5860 Cl    180 CCL4  -0.0812 
 947 CL     -13.9396   -11.7524    13.2785 Cl    180 CCL4  -0.0812 
 948 CL     -12.2763   -12.1451    11.0518 Cl    180 CCL4  -0.0812 
 949 CL     -20.2512   -23.2623     3.3677 Cl    181 CCL4  -0.0812 
 950 C      -19.3601   -21.7213     3.7111 C.3   181 CCL4   0.3246 
 951 CL     -17.8432   -22.0894     4.6776 Cl    181 CCL4  -0.0812 
 952 CL     -20.4469   -20.6306     4.6206 Cl    181 CCL4  -0.0812 
 953 CL     -18.9218   -20.9430     2.1734 Cl    181 CCL4  -0.0812 
 954 CL     -13.0497   -19.0783     3.6576 Cl    182 CCL4  -0.0812 
 955 C      -14.2610   -20.1506     2.7397 C.3   182 CCL4   0.3246 
 956 CL     -14.5019   -21.6554     3.6773 Cl    182 CCL4  -0.0812 
 957 CL     -13.5407   -20.5377     1.1262 Cl    182 CCL4  -0.0812 
 958 CL     -15.8171   -19.3061     2.7171 Cl    182 CCL4  -0.0812 
 959 CL     -17.7645   -15.5122     6.6497 Cl    183 CCL4  -0.0812 
 960 C      -16.8970   -16.9968     6.7048 C.3   183 CCL4   0.3246 
 961 CL     -17.4160   -18.2349     5.4922 Cl    183 CCL4  -0.0812 
 962 CL     -17.2520   -17.8026     8.3889 Cl    183 CCL4  -0.0812 
 963 CL     -15.1015   -16.8404     6.6619 Cl    183 CCL4  -0.0812 
 964 CL     -19.2485   -20.5986     8.6781 Cl    184 CCL4  -0.0812 
 965 C      -18.8743   -21.4169    10.1931 C.3   184 CCL4   0.3246 
 966 CL     -17.5782   -20.5998    11.0449 Cl    184 CCL4  -0.0812 
 967 CL     -18.3345   -23.1078     9.8976 Cl    184 CCL4  -0.0812 
 968 CL     -20.3586   -21.6214    11.2753 Cl    184 CCL4  -0.0812 
 969 CL     -17.3843    -2.9466    12.3221 Cl    185 CCL4  -0.0812 
 970 C      -15.7445    -2.5055    11.8225 C.3   185 CCL4   0.3246 
 971 CL     -14.8084    -2.1423    13.1977 Cl    185 CCL4  -0.0812 
 972 CL     -15.8209    -0.9807    10.9288 Cl    185 CCL4  -0.0812 
 973 CL     -15.1362    -3.8444    10.8639 Cl    185 CCL4  -0.0812 
 974 CL     -15.4264   -11.6909     3.7066 Cl    186 CCL4  -0.0812 
 975 C      -17.1112   -11.3843     3.2630 C.3   186 CCL4   0.3246 
 976 CL     -18.1392   -12.1982     4.4522 Cl    186 CCL4  -0.0812 
 977 CL     -17.5273   -11.9820     1.6205 Cl    186 CCL4  -0.0812 
 978 CL     -17.6441    -9.6918     3.3617 Cl    186 CCL4  -0.0812 
 979 CL     -19.9957    -2.9775     6.3314 Cl    187 CCL4  -0.0812 
 980 C      -18.3113    -2.7258     6.8004 C.3   187 CCL4   0.3246 
 981 CL     -18.0116    -3.3463     8.4182 Cl    187 CCL4  -0.0812 
 982 CL     -18.1820    -0.9018     6.8086 Cl    187 CCL4  -0.0812 
 983 CL     -17.3141    -3.5379     5.4731 Cl    187 CCL4  -0.0812 
 984 CL     -15.0222   -23.7517     6.9496 Cl    188 CCL4  -0.0812 
 985 C      -14.9384   -22.2628     7.8875 C.3   188 CCL4   0.3246 
 986 CL     -14.9362   -22.4624     9.5885 Cl    188 CCL4  -0.0812 
 987 CL     -16.2235   -21.1500     7.4145 Cl    188 CCL4  -0.0812 
 988 CL     -13.5186   -21.1996     7.3711 Cl    188 CCL4  -0.0812 
 989 CL     -15.3323   -15.4173    15.8739 Cl    189 CCL4  -0.0812 
 990 C      -16.5906   -14.3266    15.2272 C.3   189 CCL4   0.3246 
 991 CL     -18.2969   -15.0305    15.7554 Cl    189 CCL4  -0.0812 
 992 CL     -16.5702   -14.2547    13.4557 Cl    189 CCL4  -0.0812 
 993 CL     -16.6619   -12.7211    16.0116 Cl    189 CCL4  -0.0812 
 994 CL     -19.3184   -11.2038    14.2918 Cl    190 CCL4  -0.0812 
 995 C      -19.9962   -10.8543    12.7284 C.3   190 CCL4   0.3246 
 996 CL     -20.8146   -12.3516    12.2970 Cl    190 CCL4  -0.0812 
 997 CL     -18.8619   -10.4428    11.3953 Cl    190 CCL4  -0.0812 
 998 CL     -21.2363    -9.5711    12.7562 Cl    190 CCL4  -0.0812 
 999 CL     -16.9669   -18.3745    16.7662 Cl    191 CCL4  -0.0812 
1000 C      -15.4879   -19.0581    16.0768 C.3   191 CCL4   0.3246 
1001 CL     -15.2733   -18.2954    14.4378 Cl    191 CCL4  -0.0812 
1002 CL     -15.5924   -20.8097    15.9656 Cl    191 CCL4  -0.0812 
1003 CL     -14.0762   -18.6704    17.0617 Cl    191 CCL4  -0.0812 
1004 CL     -14.4719    23.0013    20.1784 Cl    192 CCL4  -0.0812 
1005 C      -12.9887    23.8101    19.5831 C.3   192 CCL4   0.3246 
1006 CL     -13.5174    25.0269    18.3844 Cl    192 CCL4  -0.0812 
1007 CL     -11.8862    22.6129    18.9124 Cl    192 CCL4  -0.0812 
1008 CL     -12.1663    24.4786    20.9811 Cl    192 CCL4  -0.0812 
1009 CL     -18.7482     1.8671    15.5732 Cl    193 CCL4  -0.0812 
1010 C      -17.4780     0.6218    15.4226 C.3   193 CCL4   0.3246 
1011 CL     -16.4962     0.6167    16.9207 Cl    193 CCL4  -0.0812 
1012 CL     -16.6237     1.0073    13.8452 Cl    193 CCL4  -0.0812 
1013 CL     -18.1944    -1.0141    15.3320 Cl    193 CCL4  -0.0812 
1014 CL     -19.7378   -20.3621    20.7363 Cl    194 CCL4  -0.0812 
1015 C      -18.6235   -20.9957    19.4340 C.3   194 CCL4   0.3246 
1016 CL     -18.4169   -22.7283    19.6379 Cl    194 CCL4  -0.0812 
1017 CL     -17.1781   -20.0930    19.7964 Cl    194 CCL4  -0.0812 
1018 CL     -19.2795   -20.4961    17.8713 Cl    194 CCL4  -0.0812 
1019 CL     -13.5947    -7.7928    19.4531 Cl    195 CCL4  -0.0812 
1020 C      -14.9416    -7.4506    20.4848 C.3   195 CCL4   0.3246 
1021 CL     -16.2722    -6.7393    19.5583 Cl    195 CCL4  -0.0812 
1022 CL     -14.4361    -6.0154    21.4194 Cl    195 CCL4  -0.0812 
1023 CL     -15.6314    -8.7906    21.5175 Cl    195 CCL4  -0.0812 
1024 CL     -20.3398    -9.5177     5.8399 Cl    196 CCL4  -0.0812 
1025 C      -20.7651    -7.7198     5.4686 C.3   196 CCL4   0.3246 
1026 CL     -19.8554    -6.6031     6.4795 Cl    196 CCL4  -0.0812 
1027 CL     -22.4995    -7.4990     5.8873 Cl    196 CCL4  -0.0812 
1028 CL     -20.3689    -7.3648     3.8035 Cl    196 CCL4  -0.0812 
1029 CL     -15.7179    -6.7089    13.7880 Cl    197 CCL4  -0.0812 
1030 C      -16.7355    -7.9710    14.5797 C.3   197 CCL4   0.3246 
1031 CL     -16.3856    -8.0658    16.3374 Cl    197 CCL4  -0.0812 
1032 CL     -16.4199    -9.5713    13.8961 Cl    197 CCL4  -0.0812 
1033 CL     -18.4995    -7.6687    14.2427 Cl    197 CCL4  -0.0812 
1034 CL     -21.4480    -4.7604     9.1702 Cl    198 CCL4  -0.0812 
1035 C      -21.0157    -6.0261    10.3129 C.3   198 CCL4   0.3246 
1036 CL     -22.3175    -5.9980    11.4552 Cl    198 CCL4  -0.0812 
1037 CL     -19.4441    -5.6636    11.2094 Cl    198 CCL4  -0.0812 
1038 CL     -20.7565    -7.5430     9.5379 Cl    198 CCL4  -0.0812 
1039 CL     -21.1466    -1.3398    10.3594 Cl    199 CCL4  -0.0812 
1040 C      -21.5215    -1.1329    12.0418 C.3   199 CCL4   0.3246 
1041 CL     -20.5780     0.2911    12.5558 Cl    199 CCL4  -0.0812 
1042 CL     -21.0143    -2.5671    12.9172 Cl    199 CCL4  -0.0812 
1043 CL     -23.2017    -0.8289    12.4194 Cl    199 CCL4  -0.0812 
1044 CL      13.4680    14.5446   -15.6182 Cl    200 CCL4  -0.0812 
1045 C       13.2337    16.1860   -14.9540 C.3   200 CCL4   0.3246 
1046 CL      11.7389    16.8130   -15.6623 Cl    200 CCL4  -0.0812 
1047 CL      14.6567    17.2426   -15.1765 Cl    200 CCL4  -0.0812 
1048 CL      13.0220    15.9753   -13.1906 Cl    200 CCL4  -0.0812 
1049 CL     -21.9043    12.5903   -18.7590 Cl    201 CCL4  -0.0812 
1050 C      -21.4029    12.5902   -17.1386 C.3   201 CCL4   0.3246 
1051 CL     -21.7394    11.0946   -16.3538 Cl    201 CCL4  -0.0812 
1052 CL     -21.9611    13.9456   -16.2524 Cl    201 CCL4  -0.0812 
1053 CL     -19.6109    12.7167   -17.1608 Cl    201 CCL4  -0.0812 
1054 CL     -24.0196     3.4208   -12.9714 Cl    202 CCL4  -0.0812 
1055 C      -24.6174     4.4387   -14.3665 C.3   202 CCL4   0.3246 
1056 CL     -25.8559     3.6599   -15.4491 Cl    202 CCL4  -0.0812 
1057 CL     -23.2398     4.9994   -15.3656 Cl    202 CCL4  -0.0812 
1058 CL     -25.3482     5.9774   -13.6260 Cl    202 CCL4  -0.0812 
1059 CL     -29.7512    14.8969   -13.7245 Cl    203 CCL4  -0.0812 
1060 C      -29.4650    13.1419   -13.5973 C.3   203 CCL4   0.3246 
1061 CL     -29.7097    12.6267   -11.9066 Cl    203 CCL4  -0.0812 
1062 CL     -27.9258    12.5425   -14.1608 Cl    203 CCL4  -0.0812 
1063 CL     -30.7190    12.3287   -14.5652 Cl    203 CCL4  -0.0812 
1064 CL     -25.9794     1.9895     0.8202 Cl    204 CCL4  -0.0812 
1065 C      -24.7969     2.3977     2.1126 C.3   204 CCL4   0.3246 
1066 CL     -24.3287     0.8469     2.7616 Cl    204 CCL4  -0.0812 
1067 CL     -25.7528     3.2743     3.3337 Cl    204 CCL4  -0.0812 
1068 CL     -23.4428     3.2954     1.5489 Cl    204 CCL4  -0.0812 
1069 CL     -22.6465     7.0490     1.2890 Cl    205 CCL4  -0.0812 
1070 C      -24.3183     7.6463     1.1621 C.3   205 CCL4   0.3246 
1071 CL     -24.6742     7.8983    -0.6316 Cl    205 CCL4  -0.0812 
1072 CL     -24.6478     9.1698     2.0018 Cl    205 CCL4  -0.0812 
1073 CL     -25.5521     6.4233     1.5869 Cl    205 CCL4  -0.0812 
1074 CL     -24.3054    11.9792   -13.8918 Cl    206 CCL4  -0.0812 
1075 C      -24.8139    10.2519   -13.6757 C.3   206 CCL4   0.3246 
1076 CL     -23.3869     9.3085   -13.2115 Cl    206 CCL4  -0.0812 
1077 CL     -25.4751     9.5692   -15.1281 Cl    206 CCL4  -0.0812 
1078 CL     -25.9096    10.1366   -12.2247 Cl    206 CCL4  -0.0812 
1079 CL     -29.4111     4.1016   -17.7884 Cl    207 CCL4  -0.0812 
1080 C      -31.1924     3.5757   -17.6391 C.3   207 CCL4   0.3246 
1081 CL     -31.2078     1.8826   -17.4328 Cl    207 CCL4  -0.0812 
1082 CL     -32.1617     4.0074   -19.1268 Cl    207 CCL4  -0.0812 
1083 CL     -31.8539     4.5055   -16.2162 Cl    207 CCL4  -0.0812 
1084 CL     -25.2218     4.0126    -9.8846 Cl    208 CCL4  -0.0812 
1085 C      -25.7227     2.3768    -9.5292 C.3   208 CCL4   0.3246 
1086 CL     -24.4901     1.2463   -10.0724 Cl    208 CCL4  -0.0812 
1087 CL     -27.1601     1.9675   -10.4834 Cl    208 CCL4  -0.0812 
1088 CL     -26.0521     2.2139    -7.8428 Cl    208 CCL4  -0.0812 
1089 CL     -28.8989     4.7360   -13.9465 Cl    209 CCL4  -0.0812 
1090 C      -29.6428     5.2266   -12.3952 C.3   209 CCL4   0.3246 
1091 CL     -28.4189     5.7153   -11.3225 Cl    209 CCL4  -0.0812 
1092 CL     -30.5197     3.8130   -11.7793 Cl    209 CCL4  -0.0812 
1093 CL     -30.8334     6.5692   -12.7001 Cl    209 CCL4  -0.0812 
1094 CL     -19.8486    10.1772    23.5964 Cl    210 CCL4  -0.0812 
1095 C      -18.8478     8.8511    24.3501 C.3   210 CCL4   0.3246 
1096 CL     -18.4306     7.7725    23.0064 Cl    210 CCL4  -0.0812 
1097 CL     -19.7840     8.0544    25.5876 Cl    210 CCL4  -0.0812 
1098 CL     -17.4202     9.5802    25.0935 Cl    210 CCL4  -0.0812 
1099 CL     -26.8511    12.1606     1.6898 Cl    211 CCL4  -0.0812 
1100 C      -27.1571    12.3107    -0.0155 C.3   211 CCL4   0.3246 
1101 CL     -26.0867    13.4790    -0.7985 Cl    211 CCL4  -0.0812 
1102 CL     -28.8275    12.7837    -0.3634 Cl    211 CCL4  -0.0812 
1103 CL     -26.9924    10.6886    -0.8316 Cl    211 CCL4  -0.0812 
1104 CL      13.0766    13.7509     2.0785 Cl    212 CCL4  -0.0812 
1105 C       13.7789    12.7531     0.7226 C.3   212 CCL4   0.3246 
1106 CL      15.1627    11.9171     1.3969 Cl    212 CCL4  -0.0812 
1107 CL      14.3338    13.9302    -0.4477 Cl    212 CCL4  -0.0812 
1108 CL      12.6626    11.5853     0.1112 Cl    212 CCL4  -0.0812 
1109 CL     -22.6744     9.4524   -19.6772 Cl    213 CCL4  -0.0812 
1110 C      -22.9220     7.8816   -18.9114 C.3   213 CCL4   0.3246 
1111 CL     -24.3007     7.9178   -17.8280 Cl    213 CCL4  -0.0812 
1112 CL     -21.4649     7.3956   -17.9663 Cl    213 CCL4  -0.0812 
1113 CL     -23.1447     6.6015   -20.1904 Cl    213 CCL4  -0.0812 
1114 CL     -29.4758     7.6775   -22.8584 Cl    214 CCL4  -0.0812 
1115 C      -29.0041     7.0842   -21.2479 C.3   214 CCL4   0.3246 
1116 CL     -30.1842     7.6668   -20.0888 Cl    214 CCL4  -0.0812 
1117 CL     -27.4671     7.8276   -20.7956 Cl    214 CCL4  -0.0812 
1118 CL     -28.7992     5.3321   -21.3223 Cl    214 CCL4  -0.0812 
1119 CL     -25.8772    14.0669   -19.6251 Cl    215 CCL4  -0.0812 
1120 C      -26.2632    12.6117   -18.5771 C.3   215 CCL4   0.3246 
1121 CL     -27.9668    12.6370   -17.9666 Cl    215 CCL4  -0.0812 
1122 CL     -25.1369    12.4672   -17.1785 Cl    215 CCL4  -0.0812 
1123 CL     -25.8800    11.2083   -19.6061 Cl    215 CCL4  -0.0812 
1124 CL     -33.0464    10.5922   -20.4383 Cl    216 CCL4  -0.0812 
1125 C      -31.8011    11.5259   -19.6023 C.3   216 CCL4   0.3246 
1126 CL     -31.9911    11.0707   -17.8050 Cl    216 CCL4  -0.0812 
1127 CL     -32.1751    13.3204   -19.4982 Cl    216 CCL4  -0.0812 
1128 CL     -30.2900    11.0197   -20.1922 Cl    216 CCL4  -0.0812 
1129 CL     -28.0261     6.9977   -16.7087 Cl    217 CCL4  -0.0812 
1130 C      -29.0402     8.2371   -15.9848 C.3   217 CCL4   0.3246 
1131 CL     -28.7109     9.7621   -16.8284 Cl    217 CCL4  -0.0812 
1132 CL     -28.4193     8.4810   -14.2667 Cl    217 CCL4  -0.0812 
1133 CL     -30.7157     7.7105   -16.0121 Cl    217 CCL4  -0.0812 
1134 CL      -8.7983    12.4258   -12.7949 Cl    218 CCL4  -0.0812 
1135 C       -9.1276    10.7983   -13.4516 C.3   218 CCL4   0.3246 
1136 CL     -10.3785     9.9593   -12.5652 Cl    218 CCL4  -0.0812 
1137 CL      -7.7352     9.7954   -13.2179 Cl    218 CCL4  -0.0812 
1138 CL      -9.5404    11.0470   -15.2023 Cl    218 CCL4  -0.0812 
1139 CL      -8.5134     4.4055   -12.9962 Cl    219 CCL4  -0.0812 
1140 C       -9.9789     5.2814   -13.5209 C.3   219 CCL4   0.3246 
1141 CL      -9.4139     6.5251   -14.6736 Cl    219 CCL4  -0.0812 
1142 CL     -10.8711     6.0302   -12.2221 Cl    219 CCL4  -0.0812 
1143 CL     -11.0804     4.1951   -14.5061 Cl    219 CCL4  -0.0812 
1144 CL     -10.5882    11.6220    -7.9992 Cl    220 CCL4  -0.0812 
1145 C      -11.3448    10.0541    -7.5193 C.3   220 CCL4   0.3246 
1146 CL     -11.4529     9.0006    -8.9746 Cl    220 CCL4  -0.0812 
1147 CL     -13.0248    10.3965    -6.8849 Cl    220 CCL4  -0.0812 
1148 CL     -10.3985     9.1496    -6.2214 Cl    220 CCL4  -0.0812 
1149 CL     -10.9862     6.0507   -18.1061 Cl    221 CCL4  -0.0812 
1150 C      -10.4421     7.5598   -18.8340 C.3   221 CCL4   0.3246 
1151 CL      -9.1711     8.3405   -17.7905 Cl    221 CCL4  -0.0812 
1152 CL     -11.7542     8.8024   -18.9291 Cl    221 CCL4  -0.0812 
1153 CL      -9.7739     7.4489   -20.4015 Cl    221 CCL4  -0.0812 
1154 CL     -29.4139     6.4693    -5.3244 Cl    222 CCL4  -0.0812 
1155 C      -28.9416     5.0033    -6.3142 C.3   222 CCL4   0.3246 
1156 CL     -30.4857     4.4866    -7.0670 Cl    222 CCL4  -0.0812 
1157 CL     -28.1641     3.6831    -5.3352 Cl    222 CCL4  -0.0812 
1158 CL     -27.8622     5.5883    -7.5714 Cl    222 CCL4  -0.0812 
1159 CL     -23.3889     3.1124    -1.9867 Cl    223 CCL4  -0.0812 
1160 C      -22.1228     1.8339    -1.6548 C.3   223 CCL4   0.3246 
1161 CL     -20.9155     2.5397    -0.5723 Cl    223 CCL4  -0.0812 
1162 CL     -21.4007     1.4186    -3.2316 Cl    223 CCL4  -0.0812 
1163 CL     -22.8908     0.4215    -0.8568 Cl    223 CCL4  -0.0812 
1164 CL     -22.4518    11.7694    -3.2381 Cl    224 CCL4  -0.0812 
1165 C      -21.7078    11.0707    -1.8844 C.3   224 CCL4   0.3246 
1166 CL     -22.7310    11.1040    -0.4348 Cl    224 CCL4  -0.0812 
1167 CL     -20.3328    12.0907    -1.3780 Cl    224 CCL4  -0.0812 
1168 CL     -21.1585     9.4414    -2.2157 Cl    224 CCL4  -0.0812 
1169 CL      -8.2727     5.9198    -6.9901 Cl    225 CCL4  -0.0812 
1170 C       -9.2354     4.5411    -7.7102 C.3   225 CCL4   0.3246 
1171 CL      -8.3924     3.8975    -9.1640 Cl    225 CCL4  -0.0812 
1172 CL     -10.8033     5.1728    -8.1890 Cl    225 CCL4  -0.0812 
1173 CL      -9.5567     3.1579    -6.5485 Cl    225 CCL4  -0.0812 
1174 CL      13.4654     3.6441    -3.0412 Cl    226 CCL4  -0.0812 
1175 C       14.2324     2.0645    -3.4652 C.3   226 CCL4   0.3246 
1176 CL      12.8247     1.0181    -3.8120 Cl    226 CCL4  -0.0812 
1177 CL      15.0628     1.5803    -1.9843 Cl    226 CCL4  -0.0812 
1178 CL      15.3923     1.9986    -4.7861 Cl    226 CCL4  -0.0812 
1179 CL     -23.6546    10.0310    -9.1648 Cl    227 CCL4  -0.0812 
1180 C      -22.7537    11.1037    -8.0911 C.3   227 CCL4   0.3246 
1181 CL     -21.5938    12.1911    -8.8996 Cl    227 CCL4  -0.0812 
1182 CL     -21.7817    10.0191    -6.8431 Cl    227 CCL4  -0.0812 
1183 CL     -23.8597    12.0692    -7.1114 Cl    227 CCL4  -0.0812 
1184 CL     -24.7319    13.3506   -10.3464 Cl    228 CCL4  -0.0812 
1185 C      -26.3059    13.6283    -9.4769 C.3   228 CCL4   0.3246 
1186 CL     -26.0326    14.5763    -8.0446 Cl    228 CCL4  -0.0812 
1187 CL     -27.0072    12.0110    -9.0314 Cl    228 CCL4  -0.0812 
1188 CL     -27.3357    14.5103   -10.5287 Cl    228 CCL4  -0.0812 
1189 CL     -19.7232     5.5046   -10.7834 Cl    229 CCL4  -0.0812 
1190 C      -21.2616     5.9290   -10.1949 C.3   229 CCL4   0.3246 
1191 CL     -22.3435     6.2478   -11.6374 Cl    229 CCL4  -0.0812 
1192 CL     -21.1719     7.3789    -9.2572 Cl    229 CCL4  -0.0812 
1193 CL     -21.9964     4.6461    -9.2675 Cl    229 CCL4  -0.0812 
1194 CL     -22.9064     6.8542    -4.3732 Cl    230 CCL4  -0.0812 
1195 C      -23.9368     5.8727    -5.3352 C.3   230 CCL4   0.3246 
1196 CL     -24.4154     6.7438    -6.8073 Cl    230 CCL4  -0.0812 
1197 CL     -25.3472     5.5159    -4.3654 Cl    230 CCL4  -0.0812 
1198 CL     -23.1374     4.3896    -5.7490 Cl    230 CCL4  -0.0812 
1199 CL     -18.3471    14.4433    -6.5143 Cl    231 CCL4  -0.0812 
1200 C      -17.7498    13.2410    -5.4077 C.3   231 CCL4   0.3246 
1201 CL     -18.5079    11.6714    -5.8119 Cl    231 CCL4  -0.0812 
1202 CL     -18.2115    13.6481    -3.7051 Cl    231 CCL4  -0.0812 
1203 CL     -15.9861    13.0312    -5.4208 Cl    231 CCL4  -0.0812 
1204 CL     -28.6383     9.7765    -3.5997 Cl    232 CCL4  -0.0812 
1205 C      -27.1534    10.0639    -4.5429 C.3   232 CCL4   0.3246 
1206 CL     -27.5243     9.7296    -6.2283 Cl    232 CCL4  -0.0812 
1207 CL     -25.9508     8.9970    -3.8932 Cl    232 CCL4  -0.0812 
1208 CL     -26.7273    11.8311    -4.4369 Cl    232 CCL4  -0.0812 
1209 CL     -12.2573    14.2882    -4.1086 Cl    233 CCL4  -0.0812 
1210 C      -10.9081    13.4824    -3.2086 C.3   233 CCL4   0.3246 
1211 CL      -9.3103    13.8729    -4.0312 Cl    233 CCL4  -0.0812 
1212 CL     -11.1592    11.7239    -3.2713 Cl    233 CCL4  -0.0812 
1213 CL     -10.9017    14.1684    -1.5437 Cl    233 CCL4  -0.0812 
1214 CL     -30.3364     9.4990   -10.3248 Cl    234 CCL4  -0.0812 
1215 C      -31.4316     8.5367    -9.3898 C.3   234 CCL4   0.3246 
1216 CL     -33.1180     8.8293    -9.8553 Cl    234 CCL4  -0.0812 
1217 CL     -31.3550     9.0976    -7.7550 Cl    234 CCL4  -0.0812 
1218 CL     -31.0140     6.8239    -9.5001 Cl    234 CCL4  -0.0812 
1219 CL     -13.8220     3.4986   -11.7538 Cl    235 CCL4  -0.0812 
1220 C      -12.8197     1.9927   -11.5548 C.3   235 CCL4   0.3246 
1221 CL     -13.4772     1.2447   -10.0660 Cl    235 CCL4  -0.0812 
1222 CL     -11.0987     2.4453   -11.0933 Cl    235 CCL4  -0.0812 
1223 CL     -12.8891     1.0109   -13.0607 Cl    235 CCL4  -0.0812 
1224 CL     -27.1431     4.1176    -1.9865 Cl    236 CCL4  -0.0812 
1225 C      -28.4251     5.2061    -1.3577 C.3   236 CCL4   0.3246 
1226 CL     -28.6521     4.6721     0.3525 Cl    236 CCL4  -0.0812 
1227 CL     -29.8728     5.0816    -2.3269 Cl    236 CCL4  -0.0812 
1228 CL     -27.9003     6.9092    -1.3835 Cl    236 CCL4  -0.0812 
1229 CL      12.1032     5.5552     1.4816 Cl    237 CCL4  -0.0812 
1230 C       13.7491     6.0074     1.6072 C.3   237 CCL4   0.3246 
1231 CL      14.0531     7.7587     1.8294 Cl    237 CCL4  -0.0812 
1232 CL      14.5941     5.4725     0.1312 Cl    237 CCL4  -0.0812 
1233 CL      14.5045     5.0982     2.8545 Cl    237 CCL4  -0.0812 
1234 CL     -24.6892    17.7129   -15.9126 Cl    238 CCL4  -0.0812 
1235 C      -25.3795    16.5828   -14.7162 C.3   238 CCL4   0.3246 
1236 CL     -26.5156    15.4874   -15.7151 Cl    238 CCL4  -0.0812 
1237 CL     -26.3323    17.6316   -13.5652 Cl    238 CCL4  -0.0812 
1238 CL     -24.2107    15.5137   -13.9519 Cl    238 CCL4  -0.0812 
1239 CL     -29.2992    20.4584   -13.1152 Cl    239 CCL4  -0.0812 
1240 C      -30.4238    19.6674   -12.0188 C.3   239 CCL4   0.3246 
1241 CL     -30.0248    17.9860   -11.7626 Cl    239 CCL4  -0.0812 
1242 CL     -32.0680    19.7898   -12.7653 Cl    239 CCL4  -0.0812 
1243 CL     -30.4327    20.4272   -10.3944 Cl    239 CCL4  -0.0812 
1244 CL     -14.6403    16.9952   -19.9444 Cl    240 CCL4  -0.0812 
1245 C      -14.7035    18.4164   -21.0182 C.3   240 CCL4   0.3246 
1246 CL     -13.7106    18.2419   -22.4592 Cl    240 CCL4  -0.0812 
1247 CL     -14.0154    19.7516   -19.9522 Cl    240 CCL4  -0.0812 
1248 CL     -16.3219    18.7525   -21.4675 Cl    240 CCL4  -0.0812 
1249 CL      -9.2631    17.3471    -2.3252 Cl    241 CCL4  -0.0812 
1250 C       -9.3452    18.1088    -0.7711 C.3   241 CCL4   0.3246 
1251 CL     -10.1649    17.0463     0.4318 Cl    241 CCL4  -0.0812 
1252 CL     -10.2289    19.5911    -0.9071 Cl    241 CCL4  -0.0812 
1253 CL      -7.6805    18.3962    -0.1753 Cl    241 CCL4  -0.0812 
1254 CL     -24.5717    20.6906   -17.4778 Cl    242 CCL4  -0.0812 
1255 C      -25.5632    21.5208   -16.1988 C.3   242 CCL4   0.3246 
1256 CL     -25.4854    20.8428   -14.6013 Cl    242 CCL4  -0.0812 
1257 CL     -27.2891    21.6162   -16.5817 Cl    242 CCL4  -0.0812 
1258 CL     -24.9532    23.2164   -16.1642 Cl    242 CCL4  -0.0812 
1259 CL     -29.4043    13.9460    25.4224 Cl    243 CCL4  -0.0812 
1260 C      -28.8920    15.3978    24.6607 C.3   243 CCL4   0.3246 
1261 CL     -29.0924    16.7413    25.7423 Cl    243 CCL4  -0.0812 
1262 CL     -29.7374    15.8078    23.1865 Cl    243 CCL4  -0.0812 
1263 CL     -27.1056    15.3629    24.3452 Cl    243 CCL4  -0.0812 
1264 CL     -28.9359    21.2132    26.1689 Cl    244 CCL4  -0.0812 
1265 C      -28.9904    20.6369    24.5247 C.3   244 CCL4   0.3246 
1266 CL     -28.8837    21.9468    23.3330 Cl    244 CCL4  -0.0812 
1267 CL     -30.5324    19.8864    24.3811 Cl    244 CCL4  -0.0812 
1268 CL     -27.5978    19.6051    24.1906 Cl    244 CCL4  -0.0812 
1269 CL     -29.6066    15.9035   -17.3634 Cl    245 CCL4  -0.0812 
1270 C      -29.3460    17.6161   -17.4584 C.3   245 CCL4   0.3246 
1271 CL     -30.4679    18.4708   -18.4226 Cl    245 CCL4  -0.0812 
1272 CL     -27.6225    17.8137   -18.2297 Cl    245 CCL4  -0.0812 
1273 CL     -29.1071    18.2980   -15.7999 Cl    245 CCL4  -0.0812 
1274 CL      13.5605    16.6356   -18.9316 Cl    246 CCL4  -0.0812 
1275 C       13.2292    17.4041   -20.5048 C.3   246 CCL4   0.3246 
1276 CL      11.5901    17.2034   -21.0369 Cl    246 CCL4  -0.0812 
1277 CL      14.2304    16.7399   -21.7579 Cl    246 CCL4  -0.0812 
1278 CL      13.4543    19.1314   -20.3529 Cl    246 CCL4  -0.0812 
1279 CL     -11.0184    14.2037   -10.0841 Cl    247 CCL4  -0.0812 
1280 C      -11.9805    14.9947    -8.8226 C.3   247 CCL4   0.3246 
1281 CL     -10.9491    15.6101    -7.5203 Cl    247 CCL4  -0.0812 
1282 CL     -13.1959    14.0129    -8.0849 Cl    247 CCL4  -0.0812 
1283 CL     -12.6903    16.5954    -9.5797 Cl    247 CCL4  -0.0812 
1284 CL     -20.8947    13.8735    24.7302 Cl    248 CCL4  -0.0812 
1285 C      -22.5963    13.9316    24.4448 C.3   248 CCL4   0.3246 
1286 CL     -23.3023    12.4683    24.9037 Cl    248 CCL4  -0.0812 
1287 CL     -22.9321    14.3821    22.7049 Cl    248 CCL4  -0.0812 
1288 CL     -23.2511    15.2999    25.4617 Cl    248 CCL4  -0.0812 
1289 CL     -23.8008    18.5523    -8.0513 Cl    249 CCL4  -0.0812 
1290 C      -23.1431    17.3391    -9.1763 C.3   249 CCL4   0.3246 
1291 CL     -24.2855    16.9270   -10.4258 Cl    249 CCL4  -0.0812 
1292 CL     -22.6488    15.9240    -8.3429 Cl    249 CCL4  -0.0812 
1293 CL     -21.8034    18.0495   -10.0557 Cl    249 CCL4  -0.0812 
1294 CL     -19.2793    20.4196    -9.5820 Cl    250 CCL4  -0.0812 
1295 C      -19.7745    20.2164    -7.7776 C.3   250 CCL4   0.3246 
1296 CL     -21.4519    20.9149    -7.4827 Cl    250 CCL4  -0.0812 
1297 CL     -18.5480    21.1619    -6.7945 Cl    250 CCL4  -0.0812 
1298 CL     -19.6795    18.5137    -7.2976 Cl    250 CCL4  -0.0812 
1299 CL     -28.2819    15.4356    -2.9701 Cl    251 CCL4  -0.0812 
1300 C      -29.8059    15.0260    -3.7494 C.3   251 CCL4   0.3246 
1301 CL     -31.1992    15.7708    -3.0269 Cl    251 CCL4  -0.0812 
1302 CL     -29.9643    13.2445    -3.7741 Cl    251 CCL4  -0.0812 
1303 CL     -29.7229    15.5260    -5.4099 Cl    251 CCL4  -0.0812 
1304 CL     -28.3899    20.6477    -6.5441 Cl    252 CCL4  -0.0812 
1305 C      -28.7484    18.8633    -6.5287 C.3   252 CCL4   0.3246 
1306 CL     -29.8956    18.2898    -7.7078 Cl    252 CCL4  -0.0812 
1307 CL     -29.5120    18.6296    -4.8769 Cl    252 CCL4  -0.0812 
1308 CL     -27.2609    17.8550    -6.5859 Cl    252 CCL4  -0.0812 
1309 CL     -26.4429    18.3126    -2.9939 Cl    253 CCL4  -0.0812 
1310 C      -26.8918    18.8022    -1.3463 C.3   253 CCL4   0.3246 
1311 CL     -26.2149    17.3868    -0.4120 Cl    253 CCL4  -0.0812 
1312 CL     -28.6700    18.8692    -1.1234 Cl    253 CCL4  -0.0812 
1313 CL     -26.2139    20.3638    -0.8996 Cl    253 CCL4  -0.0812 
1314 CL     -22.1997    15.2376    -2.4272 Cl    254 CCL4  -0.0812 
1315 C      -22.8335    15.3703    -4.0860 C.3   254 CCL4   0.3246 
1316 CL     -21.8241    14.5569    -5.2726 Cl    254 CCL4  -0.0812 
1317 CL     -23.0443    17.1674    -4.5409 Cl    254 CCL4  -0.0812 
1318 CL     -24.3947    14.6196    -4.1864 Cl    254 CCL4  -0.0812 
1319 CL      13.6631    17.7423    -5.7482 Cl    255 CCL4  -0.0812 
1320 C       13.5722    18.6050    -7.3054 C.3   255 CCL4   0.3246 
1321 CL      14.4005    20.2459    -7.3094 Cl    255 CCL4  -0.0812 
1322 CL      11.8451    19.1200    -7.4798 Cl    255 CCL4  -0.0812 
1323 CL      14.1696    17.6391    -8.7061 Cl    255 CCL4  -0.0812 
1324 CL     -32.3252    14.2608    -6.9783 Cl    256 CCL4  -0.0812 
1325 C      -31.2414    13.6628    -8.2473 C.3   256 CCL4   0.3246 
1326 CL     -32.1878    12.3312    -8.9514 Cl    256 CCL4  -0.0812 
1327 CL     -29.9093    12.8108    -7.4340 Cl    256 CCL4  -0.0812 
1328 CL     -30.7337    14.9141    -9.4151 Cl    256 CCL4  -0.0812 
1329 CL     -19.0032    17.7399    -2.8487 Cl    257 CCL4  -0.0812 
1330 C      -18.8920    17.5571    -1.1101 C.3   257 CCL4   0.3246 
1331 CL     -17.2108    18.2373    -0.6772 Cl    257 CCL4  -0.0812 
1332 CL     -18.9996    15.8012    -0.7180 Cl    257 CCL4  -0.0812 
1333 CL     -20.0859    18.4927    -0.2304 Cl    257 CCL4  -0.0812 
1334 CL     -16.7300    15.8548   -17.4188 Cl    258 CCL4  -0.0812 
1335 C      -16.1990    17.2022   -16.4385 C.3   258 CCL4   0.3246 
1336 CL     -16.4460    18.7692   -17.3363 Cl    258 CCL4  -0.0812 
1337 CL     -14.4467    16.9714   -16.1801 Cl    258 CCL4  -0.0812 
1338 CL     -17.1333    17.2542   -14.8653 Cl    258 CCL4  -0.0812 
1339 CL     -18.5638    10.0481   -14.5244 Cl    259 CCL4  -0.0812 
1340 C      -19.1139     8.6762   -13.5667 C.3   259 CCL4   0.3246 
1341 CL     -20.1004     9.2279   -12.2014 Cl    259 CCL4  -0.0812 
1342 CL     -17.6842     7.8764   -12.9651 Cl    259 CCL4  -0.0812 
1343 CL     -20.1508     7.6073   -14.6339 Cl    259 CCL4  -0.0812 
1344 CL     -13.4711    11.1155     0.7968 Cl    260 CCL4  -0.0812 
1345 C      -12.6729     9.8161     1.7127 C.3   260 CCL4   0.3246 
1346 CL     -14.0487     8.9802     2.4359 Cl    260 CCL4  -0.0812 
1347 CL     -11.6535    10.5978     2.8616 Cl    260 CCL4  -0.0812 
1348 CL     -11.8476     8.7510     0.6656 Cl    260 CCL4  -0.0812 
1349 CL     -13.7227    12.1381   -18.3268 Cl    261 CCL4  -0.0812 
1350 C      -12.2509    13.0961   -18.4311 C.3   261 CCL4   0.3246 
1351 CL     -10.7704    12.0803   -18.2964 Cl    261 CCL4  -0.0812 
1352 CL     -12.1649    14.3827   -17.2473 Cl    261 CCL4  -0.0812 
1353 CL     -12.1302    13.9264   -20.0314 Cl    261 CCL4  -0.0812 
1354 CL     -14.7235     6.8209   -14.5722 Cl    262 CCL4  -0.0812 
1355 C      -14.0003     8.4036   -14.5344 C.3   262 CCL4   0.3246 
1356 CL     -13.6679     8.7701   -12.7467 Cl    262 CCL4  -0.0812 
1357 CL     -15.1379     9.6688   -15.0590 Cl    262 CCL4  -0.0812 
1358 CL     -12.5160     8.5982   -15.4635 Cl    262 CCL4  -0.0812 
1359 CL     -13.0973    15.6044   -13.2604 Cl    263 CCL4  -0.0812 
1360 C      -13.6355    13.8435   -13.3451 C.3   263 CCL4   0.3246 
1361 CL     -15.0882    13.8452   -14.4140 Cl    263 CCL4  -0.0812 
1362 CL     -13.9396    13.2476   -11.7215 Cl    263 CCL4  -0.0812 
1363 CL     -12.2763    12.8549   -13.9482 Cl    263 CCL4  -0.0812 
1364 CL     -20.2512     1.7377   -21.6323 Cl    264 CCL4  -0.0812 
1365 C      -19.3601     3.2787   -21.2889 C.3   264 CCL4   0.3246 
1366 CL     -17.8432     2.9106   -20.3224 Cl    264 CCL4  -0.0812 
1367 CL     -20.4469     4.3694   -20.3794 Cl    264 CCL4  -0.0812 
1368 CL     -18.9218     4.0570   -22.8266 Cl    264 CCL4  -0.0812 
1369 CL     -13.0497     5.9217    25.6867 Cl    265 CCL4  -0.0812 
1370 C      -14.2610     4.8494    24.7688 C.3   265 CCL4   0.3246 
1371 CL     -14.5019     3.3446    25.7065 Cl    265 CCL4  -0.0812 
1372 CL     -13.5407     4.4623    23.1554 Cl    265 CCL4  -0.0812 
1373 CL     -15.8171     5.6939    24.7463 Cl    265 CCL4  -0.0812 
1374 CL     -17.7645     9.4878   -18.3503 Cl    266 CCL4  -0.0812 
1375 C      -16.8970     8.0032   -18.2952 C.3   266 CCL4   0.3246 
1376 CL     -17.4160     6.7651   -19.5078 Cl    266 CCL4  -0.0812 
1377 CL     -17.2520     7.1974   -16.6111 Cl    266 CCL4  -0.0812 
1378 CL     -15.1015     8.1596   -18.3381 Cl    266 CCL4  -0.0812 
1379 CL     -19.2485     4.4014   -16.3219 Cl    267 CCL4  -0.0812 
1380 C      -18.8743     3.5831   -14.8069 C.3   267 CCL4   0.3246 
1381 CL     -17.5782     4.4002   -13.9551 Cl    267 CCL4  -0.0812 
1382 CL     -18.3345     1.8922   -15.1024 Cl    267 CCL4  -0.0812 
1383 CL     -20.3586     3.3786   -13.7247 Cl    267 CCL4  -0.0812 
1384 CL     -15.4264    13.3091   -21.2934 Cl    268 CCL4  -0.0812 
1385 C      -17.1112    13.6157   -21.7370 C.3   268 CCL4   0.3246 
1386 CL     -18.1392    12.8018   -20.5478 Cl    268 CCL4  -0.0812 
1387 CL     -17.5273    13.0180   -23.3795 Cl    268 CCL4  -0.0812 
1388 CL     -17.6441    15.3082   -21.6383 Cl    268 CCL4  -0.0812 
1389 CL     -15.0222     1.2483   -18.0504 Cl    269 CCL4  -0.0812 
1390 C      -14.9384     2.7372   -17.1125 C.3   269 CCL4   0.3246 
1391 CL     -14.9362     2.5376   -15.4115 Cl    269 CCL4  -0.0812 
1392 CL     -16.2235     3.8500   -17.5855 Cl    269 CCL4  -0.0812 
1393 CL     -13.5186     3.8004   -17.6289 Cl    269 CCL4  -0.0812 
1394 CL     -15.3323     9.5827    -9.1261 Cl    270 CCL4  -0.0812 
1395 C      -16.5906    10.6734    -9.7728 C.3   270 CCL4   0.3246 
1396 CL     -18.2969     9.9695    -9.2446 Cl    270 CCL4  -0.0812 
1397 CL     -16.5702    10.7453   -11.5443 Cl    270 CCL4  -0.0812 
1398 CL     -16.6619    12.2789    -8.9884 Cl    270 CCL4  -0.0812 
1399 CL     -19.3184    13.7962   -10.7082 Cl    271 CCL4  -0.0812 
1400 C      -19.9962    14.1457   -12.2716 C.3   271 CCL4   0.3246 
1401 CL     -20.8146    12.6484   -12.7030 Cl    271 CCL4  -0.0812 
1402 CL     -18.8619    14.5572   -13.6047 Cl    271 CCL4  -0.0812 
1403 CL     -21.2363    15.4289   -12.2438 Cl    271 CCL4  -0.0812 
1404 CL     -16.9669     6.6255    -8.2338 Cl    272 CCL4  -0.0812 
1405 C      -15.4879     5.9419    -8.9232 C.3   272 CCL4   0.3246 
1406 CL     -15.2733     6.7046   -10.5622 Cl    272 CCL4  -0.0812 
1407 CL     -15.5924     4.1903    -9.0344 Cl    272 CCL4  -0.0812 
1408 CL     -14.0762     6.3296    -7.9383 Cl    272 CCL4  -0.0812 
1409 CL     -14.4719     0.9722    -4.8216 Cl    273 CCL4  -0.0812 
1410 C      -12.9887     1.7809    -5.4169 C.3   273 CCL4   0.3246 
1411 CL     -13.5174     2.9977    -6.6156 Cl    273 CCL4  -0.0812 
1412 CL     -11.8862     0.5837    -6.0876 Cl    273 CCL4  -0.0812 
1413 CL     -12.1663     2.4494    -4.0189 Cl    273 CCL4  -0.0812 
1414 CL     -31.9867     8.1805    -4.0578 Cl    274 CCL4  -0.0812 
1415 C      -32.4149     9.1821    -2.6838 C.3   274 CCL4   0.3246 
1416 CL     -32.7868    10.8600    -3.1158 Cl    274 CCL4  -0.0812 
1417 CL     -33.9804     8.6116    -1.9791 Cl    274 CCL4  -0.0812 
1418 CL     -31.1721     9.0702    -1.4050 Cl    274 CCL4  -0.0812 
1419 CL     -15.4773    15.4990     0.5930 Cl    275 CCL4  -0.0812 
1420 C      -13.8798    15.1304    -0.0855 C.3   275 CCL4   0.3246 
1421 CL     -13.2318    16.6281    -0.9406 Cl    275 CCL4  -0.0812 
1422 CL     -14.0675    13.8099    -1.2164 Cl    275 CCL4  -0.0812 
1423 CL     -12.7272    14.6384     1.2640 Cl    275 CCL4  -0.0812 
1424 CL     -15.1371     8.4650    -0.9993 Cl    276 CCL4  -0.0812 
1425 C      -16.1670     9.2404    -2.2544 C.3   276 CCL4   0.3246 
1426 CL     -17.2173     8.0097    -2.9541 Cl    276 CCL4  -0.0812 
1427 CL     -15.2124    10.0431    -3.5031 Cl    276 CCL4  -0.0812 
1428 CL     -17.1978    10.4371    -1.3006 Cl    276 CCL4  -0.0812 
1429 CL     -19.7378     4.6379    -4.2637 Cl    277 CCL4  -0.0812 
1430 C      -18.6235     4.0043    -5.5660 C.3   277 CCL4   0.3246 
1431 CL     -18.4169     2.2717    -5.3621 Cl    277 CCL4  -0.0812 
1432 CL     -17.1781     4.9070    -5.2036 Cl    277 CCL4  -0.0812 
1433 CL     -19.2795     4.5039    -7.1287 Cl    277 CCL4  -0.0812 
1434 CL     -12.4401     7.9791    -2.8985 Cl    278 CCL4  -0.0812 
1435 C      -12.4457     6.3320    -3.3216 C.3   278 CCL4   0.3246 
1436 CL     -11.9815     5.4098    -1.8232 Cl    278 CCL4  -0.0812 
1437 CL     -11.2916     5.9589    -4.5297 Cl    278 CCL4  -0.0812 
1438 CL     -14.0461     5.8373    -3.7349 Cl    278 CCL4  -0.0812 
1439 CL     -13.5947    17.2072    -5.5469 Cl    279 CCL4  -0.0812 
1440 C      -14.9416    17.5494    -4.5152 C.3   279 CCL4   0.3246 
1441 CL     -16.2722    18.2607    -5.4417 Cl    279 CCL4  -0.0812 
1442 CL     -14.4361    18.9846    -3.5806 Cl    279 CCL4  -0.0812 
1443 CL     -15.6314    16.2094    -3.4825 Cl    279 CCL4  -0.0812 
1444 CL     -20.3398    15.4823   -19.1601 Cl    280 CCL4  -0.0812 
1445 C      -20.7651    17.2802   -19.5314 C.3   280 CCL4   0.3246 
1446 CL     -19.8554    18.3969   -18.5205 Cl    280 CCL4  -0.0812 
1447 CL     -22.4995    17.5010   -19.1127 Cl    280 CCL4  -0.0812 
1448 CL     -20.3689    17.6352   -21.1965 Cl    280 CCL4  -0.0812 
1449 CL     -15.7179    18.2911   -11.2120 Cl    281 CCL4  -0.0812 
1450 C      -16.7355    17.0290   -10.4203 C.3   281 CCL4   0.3246 
1451 CL     -16.3856    16.9342    -8.6626 Cl    281 CCL4  -0.0812 
1452 CL     -16.4199    15.4287   -11.1039 Cl    281 CCL4  -0.0812 
1453 CL     -18.4995    17.3313   -10.7573 Cl    281 CCL4  -0.0812 
1454 CL     -21.4480    20.2396   -15.8298 Cl    282 CCL4  -0.0812 
1455 C      -21.0157    18.9739   -14.6871 C.3   282 CCL4   0.3246 
1456 CL     -22.3175    19.0020   -13.5448 Cl    282 CCL4  -0.0812 
1457 CL     -19.4441    19.3364   -13.7906 Cl    282 CCL4  -0.0812 
1458 CL     -20.7565    17.4570   -15.4621 Cl    282 CCL4  -0.0812 
1459 CL      13.4680    14.5446     9.3818 Cl    283 CCL4  -0.0812 
1460 C       13.2337    16.1860    10.0460 C.3   283 CCL4   0.3246 
1461 CL      11.7389    16.8130     9.3377 Cl    283 CCL4  -0.0812 
1462 CL      14.6567    17.2426     9.8235 Cl    283 CCL4  -0.0812 
1463 CL      13.0220    15.9753    11.8094 Cl    283 CCL4  -0.0812 
1464 CL     -21.9043    12.5903     6.2410 Cl    284 CCL4  -0.0812 
1465 C      -21.4029    12.5902     7.8614 C.3   284 CCL4   0.3246 
1466 CL     -21.7394    11.0946     8.6462 Cl    284 CCL4  -0.0812 
1467 CL     -21.9611    13.9456     8.7476 Cl    284 CCL4  -0.0812 
1468 CL     -19.6109    12.7167     7.8392 Cl    284 CCL4  -0.0812 
1469 CL     -24.0196     3.4208    12.0286 Cl    285 CCL4  -0.0812 
1470 C      -24.6174     4.4387    10.6335 C.3   285 CCL4   0.3246 
1471 CL     -25.8559     3.6599     9.5509 Cl    285 CCL4  -0.0812 
1472 CL     -23.2398     4.9994     9.6344 Cl    285 CCL4  -0.0812 
1473 CL     -25.3482     5.9774    11.3740 Cl    285 CCL4  -0.0812 
1474 CL     -29.7512    14.8969    11.2755 Cl    286 CCL4  -0.0812 
1475 C      -29.4650    13.1419    11.4027 C.3   286 CCL4   0.3246 
1476 CL     -29.7097    12.6267    13.0934 Cl    286 CCL4  -0.0812 
1477 CL     -27.9258    12.5425    10.8392 Cl    286 CCL4  -0.0812 
1478 CL     -30.7190    12.3287    10.4348 Cl    286 CCL4  -0.0812 
1479 CL     -24.3054    11.9792    11.1082 Cl    287 CCL4  -0.0812 
1480 C      -24.8139    10.2519    11.3243 C.3   287 CCL4   0.3246 
1481 CL     -23.3869     9.3085    11.7885 Cl    287 CCL4  -0.0812 
1482 CL     -25.4751     9.5692     9.8719 Cl    287 CCL4  -0.0812 
1483 CL     -25.9096    10.1366    12.7753 Cl    287 CCL4  -0.0812 
1484 CL     -29.4111     4.1016     7.2116 Cl    288 CCL4  -0.0812 
1485 C      -31.1924     3.5757     7.3609 C.3   288 CCL4   0.3246 
1486 CL     -31.2078     1.8826     7.5672 Cl    288 CCL4  -0.0812 
1487 CL     -32.1617     4.0074     5.8732 Cl    288 CCL4  -0.0812 
1488 CL     -31.8539     4.5055     8.7838 Cl    288 CCL4  -0.0812 
1489 CL     -25.2218     4.0126    15.1154 Cl    289 CCL4  -0.0812 
1490 C      -25.7227     2.3768    15.4708 C.3   289 CCL4   0.3246 
1491 CL     -24.4901     1.2463    14.9276 Cl    289 CCL4  -0.0812 
1492 CL     -27.1601     1.9675    14.5166 Cl    289 CCL4  -0.0812 
1493 CL     -26.0521     2.2139    17.1572 Cl    289 CCL4  -0.0812 
1494 CL     -28.8989     4.7360    11.0535 Cl    290 CCL4  -0.0812 
1495 C      -29.6428     5.2266    12.6048 C.3   290 CCL4   0.3246 
1496 CL     -28.4189     5.7153    13.6775 Cl    290 CCL4  -0.0812 
1497 CL     -30.5197     3.8130    13.2207 Cl    290 CCL4  -0.0812 
1498 CL     -30.8334     6.5692    12.2999 Cl    290 CCL4  -0.0812 
1499 CL     -10.2861     2.6426     7.4418 Cl    291 CCL4  -0.0812 
1500 C      -10.4547     1.9149     5.8277 C.3   291 CCL4   0.3246 
1501 CL     -11.8175     0.7506     5.7314 Cl    291 CCL4  -0.0812 
1502 CL      -8.8613     1.2825     5.3998 Cl    291 CCL4  -0.0812 
1503 CL     -10.7999     3.3017     4.7228 Cl    291 CCL4  -0.0812 
1504 CL     -19.8486    10.1772     1.5672 Cl    292 CCL4  -0.0812 
1505 C      -18.8478     8.8511     2.3210 C.3   292 CCL4   0.3246 
1506 CL     -18.4306     7.7725     0.9772 Cl    292 CCL4  -0.0812 
1507 CL     -19.7840     8.0544     3.5585 Cl    292 CCL4  -0.0812 
1508 CL     -17.4202     9.5802     3.0643 Cl    292 CCL4  -0.0812 
1509 CL     -22.6744     9.4524     5.3228 Cl    293 CCL4  -0.0812 
1510 C      -22.9220     7.8816     6.0886 C.3   293 CCL4   0.3246 
1511 CL     -24.3007     7.9178     7.1720 Cl    293 CCL4  -0.0812 
1512 CL     -21.4649     7.3956     7.0337 Cl    293 CCL4  -0.0812 
1513 CL     -23.1447     6.6015     4.8096 Cl    293 CCL4  -0.0812 
1514 CL     -29.4758     7.6775     2.1416 Cl    294 CCL4  -0.0812 
1515 C      -29.0041     7.0842     3.7521 C.3   294 CCL4   0.3246 
1516 CL     -30.1842     7.6668     4.9112 Cl    294 CCL4  -0.0812 
1517 CL     -27.4671     7.8276     4.2044 Cl    294 CCL4  -0.0812 
1518 CL     -28.7992     5.3321     3.6777 Cl    294 CCL4  -0.0812 
1519 CL     -25.8772    14.0669     5.3749 Cl    295 CCL4  -0.0812 
1520 C      -26.2632    12.6117     6.4229 C.3   295 CCL4   0.3246 
1521 CL     -27.9668    12.6370     7.0334 Cl    295 CCL4  -0.0812 
1522 CL     -25.1369    12.4672     7.8215 Cl    295 CCL4  -0.0812 
1523 CL     -25.8800    11.2083     5.3939 Cl    295 CCL4  -0.0812 
1524 CL     -33.0464    10.5922     4.5617 Cl    296 CCL4  -0.0812 
1525 C      -31.8011    11.5259     5.3977 C.3   296 CCL4   0.3246 
1526 CL     -31.9911    11.0707     7.1950 Cl    296 CCL4  -0.0812 
1527 CL     -32.1751    13.3204     5.5018 Cl    296 CCL4  -0.0812 
1528 CL     -30.2900    11.0197     4.8078 Cl    296 CCL4  -0.0812 
1529 CL     -28.0261     6.9977     8.2913 Cl    297 CCL4  -0.0812 
1530 C      -29.0402     8.2371     9.0152 C.3   297 CCL4   0.3246 
1531 CL     -28.7109     9.7621     8.1716 Cl    297 CCL4  -0.0812 
1532 CL     -28.4193     8.4810    10.7333 Cl    297 CCL4  -0.0812 
1533 CL     -30.7157     7.7105     8.9879 Cl    297 CCL4  -0.0812 
1534 CL      -8.7983    12.4258    12.2051 Cl    298 CCL4  -0.0812 
1535 C       -9.1276    10.7983    11.5484 C.3   298 CCL4   0.3246 
1536 CL     -10.3785     9.9593    12.4348 Cl    298 CCL4  -0.0812 
1537 CL      -7.7352     9.7954    11.7821 Cl    298 CCL4  -0.0812 
1538 CL      -9.5404    11.0470     9.7977 Cl    298 CCL4  -0.0812 
1539 CL      -8.5134     4.4055    12.0038 Cl    299 CCL4  -0.0812 
1540 C       -9.9789     5.2814    11.4791 C.3   299 CCL4   0.3246 
1541 CL      -9.4139     6.5251    10.3264 Cl    299 CCL4  -0.0812 
1542 CL     -10.8711     6.0302    12.7779 Cl    299 CCL4  -0.0812 
1543 CL     -11.0804     4.1951    10.4939 Cl    299 CCL4  -0.0812 
1544 CL     -10.5882    11.6220    17.0008 Cl    300 CCL4  -0.0812 
1545 C      -11.3448    10.0541    17.4807 C.3   300 CCL4   0.3246 
1546 CL     -11.4529     9.0006    16.0254 Cl    300 CCL4  -0.0812 
1547 CL     -13.0248    10.3965    18.1151 Cl    300 CCL4  -0.0812 
1548 CL     -10.3985     9.1496    18.7786 Cl    300 CCL4  -0.0812 
1549 CL     -10.9862     6.0507     6.8939 Cl    301 CCL4  -0.0812 
1550 C      -10.4421     7.5598     6.1660 C.3   301 CCL4   0.3246 
1551 CL      -9.1711     8.3405     7.2095 Cl    301 CCL4  -0.0812 
1552 CL     -11.7542     8.8024     6.0709 Cl    301 CCL4  -0.0812 
1553 CL      -9.7739     7.4489     4.5985 Cl    301 CCL4  -0.0812 
1554 CL     -29.4139     6.4693    19.6756 Cl    302 CCL4  -0.0812 
1555 C      -28.9416     5.0033    18.6858 C.3   302 CCL4   0.3246 
1556 CL     -30.4857     4.4866    17.9330 Cl    302 CCL4  -0.0812 
1557 CL     -28.1641     3.6831    19.6648 Cl    302 CCL4  -0.0812 
1558 CL     -27.8622     5.5883    17.4286 Cl    302 CCL4  -0.0812 
1559 CL      -8.2727     5.9198    18.0099 Cl    303 CCL4  -0.0812 
1560 C       -9.2354     4.5411    17.2898 C.3   303 CCL4   0.3246 
1561 CL      -8.3924     3.8975    15.8360 Cl    303 CCL4  -0.0812 
1562 CL     -10.8033     5.1728    16.8110 Cl    303 CCL4  -0.0812 
1563 CL      -9.5567     3.1579    18.4515 Cl    303 CCL4  -0.0812 
1564 CL     -23.6546    10.0310    15.8352 Cl    304 CCL4  -0.0812 
1565 C      -22.7537    11.1037    16.9089 C.3   304 CCL4   0.3246 
1566 CL     -21.5938    12.1911    16.1004 Cl    304 CCL4  -0.0812 
1567 CL     -21.7817    10.0191    18.1569 Cl    304 CCL4  -0.0812 
1568 CL     -23.8597    12.0692    17.8886 Cl    304 CCL4  -0.0812 
1569 CL     -24.7319    13.3506    14.6536 Cl    305 CCL4  -0.0812 
1570 C      -26.3059    13.6283    15.5231 C.3   305 CCL4   0.3246 
1571 CL     -26.0326    14.5763    16.9554 Cl    305 CCL4  -0.0812 
1572 CL     -27.0072    12.0110    15.9686 Cl    305 CCL4  -0.0812 
1573 CL     -27.3357    14.5103    14.4713 Cl    305 CCL4  -0.0812 
1574 CL     -19.7232     5.5046    14.2166 Cl    306 CCL4  -0.0812 
1575 C      -21.2616     5.9290    14.8051 C.3   306 CCL4   0.3246 
1576 CL     -22.3435     6.2478    13.3626 Cl    306 CCL4  -0.0812 
1577 CL     -21.1719     7.3789    15.7428 Cl    306 CCL4  -0.0812 
1578 CL     -21.9964     4.6461    15.7325 Cl    306 CCL4  -0.0812 
1579 CL     -22.9064     6.8542    20.6268 Cl    307 CCL4  -0.0812 
1580 C      -23.9368     5.8727    19.6648 C.3   307 CCL4   0.3246 
1581 CL     -24.4154     6.7438    18.1927 Cl    307 CCL4  -0.0812 
1582 CL     -25.3472     5.5159    20.6346 Cl    307 CCL4  -0.0812 
1583 CL     -23.1374     4.3896    19.2510 Cl    307 CCL4  -0.0812 
1584 CL     -18.3471    14.4433    18.4857 Cl    308 CCL4  -0.0812 
1585 C      -17.7498    13.2410    19.5923 C.3   308 CCL4   0.3246 
1586 CL     -18.5079    11.6714    19.1881 Cl    308 CCL4  -0.0812 
1587 CL     -18.2115    13.6481    21.2949 Cl    308 CCL4  -0.0812 
1588 CL     -15.9861    13.0312    19.5792 Cl    308 CCL4  -0.0812 
1589 CL     -28.6383     9.7765    21.4003 Cl    309 CCL4  -0.0812 
1590 C      -27.1534    10.0639    20.4571 C.3   309 CCL4   0.3246 
1591 CL     -27.5243     9.7296    18.7717 Cl    309 CCL4  -0.0812 
1592 CL     -25.9508     8.9970    21.1068 Cl    309 CCL4  -0.0812 
1593 CL     -26.7273    11.8311    20.5631 Cl    309 CCL4  -0.0812 
1594 CL     -12.2573    14.2882    20.8914 Cl    310 CCL4  -0.0812 
1595 C      -10.9081    13.4824    21.7914 C.3   310 CCL4   0.3246 
1596 CL      -9.3103    13.8729    20.9688 Cl    310 CCL4  -0.0812 
1597 CL     -11.1592    11.7239    21.7287 Cl    310 CCL4  -0.0812 
1598 CL     -10.9017    14.1684    23.4563 Cl    310 CCL4  -0.0812 
1599 CL     -30.3364     9.4990    14.6752 Cl    311 CCL4  -0.0812 
1600 C      -31.4316     8.5367    15.6102 C.3   311 CCL4   0.3246 
1601 CL     -33.1180     8.8293    15.1447 Cl    311 CCL4  -0.0812 
1602 CL     -31.3550     9.0976    17.2450 Cl    311 CCL4  -0.0812 
1603 CL     -31.0140     6.8239    15.4999 Cl    311 CCL4  -0.0812 
1604 CL     -13.8220     3.4986    13.2462 Cl    312 CCL4  -0.0812 
1605 C      -12.8197     1.9927    13.4452 C.3   312 CCL4   0.3246 
1606 CL     -13.4772     1.2447    14.9340 Cl    312 CCL4  -0.0812 
1607 CL     -11.0987     2.4453    13.9067 Cl    312 CCL4  -0.0812 
1608 CL     -12.8891     1.0109    11.9393 Cl    312 CCL4  -0.0812 
1609 CL     -24.6892    17.7129     9.0874 Cl    313 CCL4  -0.0812 
1610 C      -25.3795    16.5828    10.2838 C.3   313 CCL4   0.3246 
1611 CL     -26.5156    15.4874     9.2849 Cl    313 CCL4  -0.0812 
1612 CL     -26.3323    17.6316    11.4348 Cl    313 CCL4  -0.0812 
1613 CL     -24.2107    15.5137    11.0481 Cl    313 CCL4  -0.0812 
1614 CL     -29.2992    20.4584    11.8848 Cl    314 CCL4  -0.0812 
1615 C      -30.4238    19.6674    12.9812 C.3   314 CCL4   0.3246 
1616 CL     -30.0248    17.9860    13.2374 Cl    314 CCL4  -0.0812 
1617 CL     -32.0680    19.7898    12.2347 Cl    314 CCL4  -0.0812 
1618 CL     -30.4327    20.4272    14.6056 Cl    314 CCL4  -0.0812 
1619 CL     -14.6403    16.9952     5.0556 Cl    315 CCL4  -0.0812 
1620 C      -14.7035    18.4164     3.9818 C.3   315 CCL4   0.3246 
1621 CL     -13.7106    18.2419     2.5408 Cl    315 CCL4  -0.0812 
1622 CL     -14.0154    19.7516     5.0478 Cl    315 CCL4  -0.0812 
1623 CL     -16.3219    18.7525     3.5325 Cl    315 CCL4  -0.0812 
1624 CL     -24.5717    20.6906     7.5222 Cl    316 CCL4  -0.0812 
1625 C      -25.5632    21.5208     8.8012 C.3   316 CCL4   0.3246 
1626 CL     -25.4854    20.8428    10.3987 Cl    316 CCL4  -0.0812 
1627 CL     -27.2891    21.6162     8.4183 Cl    316 CCL4  -0.0812 
1628 CL     -24.9532    23.2164     8.8358 Cl    316 CCL4  -0.0812 
1629 CL     -29.4043    13.9460     3.3933 Cl    317 CCL4  -0.0812 
1630 C      -28.8920    15.3978     2.6315 C.3   317 CCL4   0.3246 
1631 CL     -29.0924    16.7413     3.7131 Cl    317 CCL4  -0.0812 
1632 CL     -29.7374    15.8078     1.1573 Cl    317 CCL4  -0.0812 
1633 CL     -27.1056    15.3629     2.3160 Cl    317 CCL4  -0.0812 
1634 CL     -28.9359    21.2132     4.1397 Cl    318 CCL4  -0.0812 
1635 C      -28.9904    20.6369     2.4956 C.3   318 CCL4   0.3246 
1636 CL     -28.8837    21.9468     1.3038 Cl    318 CCL4  -0.0812 
1637 CL     -30.5324    19.8864     2.3520 Cl    318 CCL4  -0.0812 
1638 CL     -27.5978    19.6051     2.1615 Cl    318 CCL4  -0.0812 
1639 CL     -29.6066    15.9035     7.6366 Cl    319 CCL4  -0.0812 
1640 C      -29.3460    17.6161     7.5416 C.3   319 CCL4   0.3246 
1641 CL     -30.4679    18.4708     6.5774 Cl    319 CCL4  -0.0812 
1642 CL     -27.6225    17.8137     6.7703 Cl    319 CCL4  -0.0812 
1643 CL     -29.1071    18.2980     9.2001 Cl    319 CCL4  -0.0812 
1644 CL      13.5605    16.6356     6.0684 Cl    320 CCL4  -0.0812 
1645 C       13.2292    17.4041     4.4952 C.3   320 CCL4   0.3246 
1646 CL      11.5901    17.2034     3.9631 Cl    320 CCL4  -0.0812 
1647 CL      14.2304    16.7399     3.2421 Cl    320 CCL4  -0.0812 
1648 CL      13.4543    19.1314     4.6471 Cl    320 CCL4  -0.0812 
1649 CL     -11.0184    14.2037    14.9159 Cl    321 CCL4  -0.0812 
1650 C      -11.9805    14.9947    16.1774 C.3   321 CCL4   0.3246 
1651 CL     -10.9491    15.6101    17.4797 Cl    321 CCL4  -0.0812 
1652 CL     -13.1959    14.0129    16.9151 Cl    321 CCL4  -0.0812 
1653 CL     -12.6903    16.5954    15.4203 Cl    321 CCL4  -0.0812 
1654 CL     -20.8947    13.8735     2.7011 Cl    322 CCL4  -0.0812 
1655 C      -22.5963    13.9316     2.4157 C.3   322 CCL4   0.3246 
1656 CL     -23.3023    12.4683     2.8746 Cl    322 CCL4  -0.0812 
1657 CL     -22.9321    14.3821     0.6758 Cl    322 CCL4  -0.0812 
1658 CL     -23.2511    15.2999     3.4325 Cl    322 CCL4  -0.0812 
1659 CL     -23.8008    18.5523    16.9487 Cl    323 CCL4  -0.0812 
1660 C      -23.1431    17.3391    15.8237 C.3   323 CCL4   0.3246 
1661 CL     -24.2855    16.9270    14.5742 Cl    323 CCL4  -0.0812 
1662 CL     -22.6488    15.9240    16.6571 Cl    323 CCL4  -0.0812 
1663 CL     -21.8034    18.0495    14.9443 Cl    323 CCL4  -0.0812 
1664 CL     -19.2793    20.4196    15.4180 Cl    324 CCL4  -0.0812 
1665 C      -19.7745    20.2164    17.2224 C.3   324 CCL4   0.3246 
1666 CL     -21.4519    20.9149    17.5173 Cl    324 CCL4  -0.0812 
1667 CL     -18.5480    21.1619    18.2055 Cl    324 CCL4  -0.0812 
1668 CL     -19.6795    18.5137    17.7024 Cl    324 CCL4  -0.0812 
1669 CL     -28.3899    20.6477    18.4559 Cl    325 CCL4  -0.0812 
1670 C      -28.7484    18.8633    18.4713 C.3   325 CCL4   0.3246 
1671 CL     -29.8956    18.2898    17.2922 Cl    325 CCL4  -0.0812 
1672 CL     -29.5120    18.6296    20.1231 Cl    325 CCL4  -0.0812 
1673 CL     -27.2609    17.8550    18.4141 Cl    325 CCL4  -0.0812 
1674 CL      13.6631    17.7423    19.2518 Cl    326 CCL4  -0.0812 
1675 C       13.5722    18.6050    17.6946 C.3   326 CCL4   0.3246 
1676 CL      14.4005    20.2459    17.6906 Cl    326 CCL4  -0.0812 
1677 CL      11.8451    19.1200    17.5202 Cl    326 CCL4  -0.0812 
1678 CL      14.1696    17.6391    16.2939 Cl    326 CCL4  -0.0812 
1679 CL     -32.3252    14.2608    18.0217 Cl    327 CCL4  -0.0812 
1680 C      -31.2414    13.6628    16.7527 C.3   327 CCL4   0.3246 
1681 CL     -32.1878    12.3312    16.0486 Cl    327 CCL4  -0.0812 
1682 CL     -29.9093    12.8108    17.5660 Cl    327 CCL4  -0.0812 
1683 CL     -30.7337    14.9141    15.5849 Cl    327 CCL4  -0.0812 
1684 CL     -16.7300    15.8548     7.5812 Cl    328 CCL4  -0.0812 
1685 C      -16.1990    17.2022     8.5615 C.3   328 CCL4   0.3246 
1686 CL     -16.4460    18.7692     7.6637 Cl    328 CCL4  -0.0812 
1687 CL     -14.4467    16.9714     8.8199 Cl    328 CCL4  -0.0812 
1688 CL     -17.1333    17.2542    10.1347 Cl    328 CCL4  -0.0812 
1689 CL     -18.5638    10.0481    10.4756 Cl    329 CCL4  -0.0812 
1690 C      -19.1139     8.6762    11.4333 C.3   329 CCL4   0.3246 
1691 CL     -20.1004     9.2279    12.7986 Cl    329 CCL4  -0.0812 
1692 CL     -17.6842     7.8764    12.0349 Cl    329 CCL4  -0.0812 
1693 CL     -20.1508     7.6073    10.3661 Cl    329 CCL4  -0.0812 
1694 CL     -13.7227    12.1381     6.6732 Cl    330 CCL4  -0.0812 
1695 C      -12.2509    13.0961     6.5689 C.3   330 CCL4   0.3246 
1696 CL     -10.7704    12.0803     6.7036 Cl    330 CCL4  -0.0812 
1697 CL     -12.1649    14.3827     7.7527 Cl    330 CCL4  -0.0812 
1698 CL     -12.1302    13.9264     4.9686 Cl    330 CCL4  -0.0812 
1699 CL     -14.7235     6.8209    10.4278 Cl    331 CCL4  -0.0812 
1700 C      -14.0003     8.4036    10.4656 C.3   331 CCL4   0.3246 
1701 CL     -13.6679     8.7701    12.2533 Cl    331 CCL4  -0.0812 
1702 CL     -15.1379     9.6688     9.9410 Cl    331 CCL4  -0.0812 
1703 CL     -12.5160     8.5982     9.5365 Cl    331 CCL4  -0.0812 
1704 CL     -13.0973    15.6044    11.7396 Cl    332 CCL4  -0.0812 
1705 C      -13.6355    13.8435    11.6549 C.3   332 CCL4   0.3246 
1706 CL     -15.0882    13.8452    10.5860 Cl    332 CCL4  -0.0812 
1707 CL     -13.9396    13.2476    13.2785 Cl    332 CCL4  -0.0812 
1708 CL     -12.2763    12.8549    11.0518 Cl    332 CCL4  -0.0812 
1709 CL     -17.7645     9.4878     6.6497 Cl    333 CCL4  -0.0812 
1710 C      -16.8970     8.0032     6.7048 C.3   333 CCL4   0.3246 
1711 CL     -17.4160     6.7651     5.4922 Cl    333 CCL4  -0.0812 
1712 CL     -17.2520     7.1974     8.3889 Cl    333 CCL4  -0.0812 
1713 CL     -15.1015     8.1596     6.6619 Cl    333 CCL4  -0.0812 
1714 CL     -19.2485     4.4014     8.6781 Cl    334 CCL4  -0.0812 
1715 C      -18.8743     3.5831    10.1931 C.3   334 CCL4   0.3246 
1716 CL     -17.5782     4.4002    11.0449 Cl    334 CCL4  -0.0812 
1717 CL     -18.3345     1.8922     9.8976 Cl    334 CCL4  -0.0812 
1718 CL     -20.3586     3.3786    11.2753 Cl    334 CCL4  -0.0812 
1719 CL     -15.4264    13.3091     3.7066 Cl    335 CCL4  -0.0812 
1720 C      -17.1112    13.6157     3.2630 C.3   335 CCL4   0.3246 
1721 CL     -18.1392    12.8018     4.4522 Cl    335 CCL4  -0.0812 
1722 CL     -17.5273    13.0180     1.6205 Cl    335 CCL4  -0.0812 
1723 CL     -17.6441    15.3082     3.3617 Cl    335 CCL4  -0.0812 
1724 CL     -15.0222     1.2483     6.9496 Cl    336 CCL4  -0.0812 
1725 C      -14.9384     2.7372     7.8875 C.3   336 CCL4   0.3246 
1726 CL     -14.9362     2.5376     9.5885 Cl    336 CCL4  -0.0812 
1727 CL     -16.2235     3.8500     7.4145 Cl    336 CCL4  -0.0812 
1728 CL     -13.5186     3.8004     7.3711 Cl    336 CCL4  -0.0812 
1729 CL     -15.3323     9.5827    15.8739 Cl    337 CCL4  -0.0812 
1730 C      -16.5906    10.6734    15.2272 C.3   337 CCL4   0.3246 
1731 CL     -18.2969     9.9695    15.7554 Cl    337 CCL4  -0.0812 
1732 CL     -16.5702    10.7453    13.4557 Cl    337 CCL4  -0.0812 
1733 CL     -16.6619    12.2789    16.0116 Cl    337 CCL4  -0.0812 
1734 CL     -19.3184    13.7962    14.2918 Cl    338 CCL4  -0.0812 
1735 C      -19.9962    14.1457    12.7284 C.3   338 CCL4   0.3246 
1736 CL     -20.8146    12.6484    12.2970 Cl    338 CCL4  -0.0812 
1737 CL     -18.8619    14.5572    11.3953 Cl    338 CCL4  -0.0812 
1738 CL     -21.2363    15.4289    12.7562 Cl    338 CCL4  -0.0812 
1739 CL     -16.9669     6.6255    16.7662 Cl    339 CCL4  -0.0812 
1740 C      -15.4879     5.9419    16.0768 C.3   339 CCL4   0.3246 
1741 CL     -15.2733     6.7046    14.4378 Cl    339 CCL4  -0.0812 
1742 CL     -15.5924     4.1903    15.9656 Cl    339 CCL4  -0.0812 
1743 CL     -14.0762     6.3296    17.0617 Cl    339 CCL4  -0.0812 
1744 CL     -14.4719     0.9722    20.1784 Cl    340 CCL4  -0.0812 
1745 C      -12.9887     1.7809    19.5831 C.3   340 CCL4   0.3246 
1746 CL     -13.5174     2.9977    18.3844 Cl    340 CCL4  -0.0812 
1747 CL     -11.8862     0.5837    18.9124 Cl    340 CCL4  -0.0812 
1748 CL     -12.1663     2.4494    20.9811 Cl    340 CCL4  -0.0812 
1749 CL     -19.7378     4.6379    20.7363 Cl    341 CCL4  -0.0812 
1750 C      -18.6235     4.0043    19.4340 C.3   341 CCL4   0.3246 
1751 CL     -18.4169     2.2717    19.6379 Cl    341 CCL4  -0.0812 
1752 CL     -17.1781     4.9070    19.7964 Cl    341 CCL4  -0.0812 
1753 CL     -19.2795     4.5039    17.8713 Cl    341 CCL4  -0.0812 
1754 CL     -13.5947    17.2072    19.4531 Cl    342 CCL4  -0.0812 
1755 C      -14.9416    17.5494    20.4848 C.3   342 CCL4   0.3246 
1756 CL     -16.2722    18.2607    19.5583 Cl    342 CCL4  -0.0812 
1757 CL     -14.4361    18.9846    21.4194 Cl    342 CCL4  -0.0812 
1758 CL     -15.6314    16.2094    21.5175 Cl    342 CCL4  -0.0812 
1759 CL     -20.3398    15.4823     5.8399 Cl    343 CCL4  -0.0812 
1760 C      -20.7651    17.2802     5.4686 C.3   343 CCL4   0.3246 
1761 CL     -19.8554    18.3969     6.4795 Cl    343 CCL4  -0.0812 
1762 CL     -22.4995    17.5010     5.8873 Cl    343 CCL4  -0.0812 
1763 CL     -20.3689    17.6352     3.8035 Cl    343 CCL4  -0.0812 
1764 CL     -15.7179    18.2911    13.7880 Cl    344 CCL4  -0.0812 
1765 C      -16.7355    17.0290    14.5797 C.3   344 CCL4   0.3246 
1766 CL     -16.3856    16.9342    16.3374 Cl    344 CCL4  -0.0812 
1767 CL     -16.4199    15.4287    13.8961 Cl    344 CCL4  -0.0812 
1768 CL     -18.4995    17.3313    14.2427 Cl    344 CCL4  -0.0812 
1769 CL     -21.4480    20.2396     9.1702 Cl    345 CCL4  -0.0812 
1770 C      -21.0157    18.9739    10.3129 C.3   345 CCL4   0.3246 
1771 CL     -22.3175    19.0020    11.4552 Cl    345 CCL4  -0.0812 
1772 CL     -19.4441    19.3364    11.2094 Cl    345 CCL4  -0.0812 
1773 CL     -20.7565    17.4570     9.5379 Cl    345 CCL4  -0.0812 
1774 CL      -8.5612   -10.4554   -15.6182 Cl    346 CCL4  -0.0812 
1775 C       -8.7954    -8.8140   -14.9540 C.3   346 CCL4   0.3246 
1776 CL     -10.2902    -8.1870   -15.6623 Cl    346 CCL4  -0.0812 
1777 CL      -7.3725    -7.7574   -15.1765 Cl    346 CCL4  -0.0812 
1778 CL      -9.0071    -9.0247   -13.1906 Cl    346 CCL4  -0.0812 
1779 CL       3.0957   -12.4097   -18.7590 Cl    347 CCL4  -0.0812 
1780 C        3.5971   -12.4098   -17.1386 C.3   347 CCL4   0.3246 
1781 CL       3.2606   -13.9054   -16.3538 Cl    347 CCL4  -0.0812 
1782 CL       3.0389   -11.0544   -16.2524 Cl    347 CCL4  -0.0812 
1783 CL       5.3891   -12.2833   -17.1608 Cl    347 CCL4  -0.0812 
1784 CL       0.9804   -21.5792   -12.9714 Cl    348 CCL4  -0.0812 
1785 C        0.3826   -20.5613   -14.3665 C.3   348 CCL4   0.3246 
1786 CL      -0.8559   -21.3401   -15.4491 Cl    348 CCL4  -0.0812 
1787 CL       1.7602   -20.0006   -15.3656 Cl    348 CCL4  -0.0812 
1788 CL      -0.3482   -19.0226   -13.6260 Cl    348 CCL4  -0.0812 
1789 CL      -4.7512   -10.1031   -13.7245 Cl    349 CCL4  -0.0812 
1790 C       -4.4650   -11.8581   -13.5973 C.3   349 CCL4   0.3246 
1791 CL      -4.7097   -12.3733   -11.9066 Cl    349 CCL4  -0.0812 
1792 CL      -2.9258   -12.4575   -14.1608 Cl    349 CCL4  -0.0812 
1793 CL      -5.7190   -12.6713   -14.5652 Cl    349 CCL4  -0.0812 
1794 CL      -0.9794    24.0186     0.8202 Cl    350 CCL4  -0.0812 
1795 C        0.2031    24.4268     2.1126 C.3   350 CCL4   0.3246 
1796 CL       0.6713    22.8760     2.7616 Cl    350 CCL4  -0.0812 
1797 CL      -0.7528    25.3035     3.3337 Cl    350 CCL4  -0.0812 
1798 CL       1.5572    25.3245     1.5489 Cl    350 CCL4  -0.0812 
1799 CL       2.3535   -17.9510     1.2890 Cl    351 CCL4  -0.0812 
1800 C        0.6817   -17.3537     1.1621 C.3   351 CCL4   0.3246 
1801 CL       0.3258   -17.1017    -0.6316 Cl    351 CCL4  -0.0812 
1802 CL       0.3522   -15.8302     2.0018 Cl    351 CCL4  -0.0812 
1803 CL      -0.5521   -18.5767     1.5869 Cl    351 CCL4  -0.0812 
1804 CL      -3.3018    -1.2211   -13.5422 Cl    352 CCL4  -0.0812 
1805 C       -2.7676     0.3403   -14.2276 C.3   352 CCL4   0.3246 
1806 CL      -3.6958     1.7553   -13.6938 Cl    352 CCL4  -0.0812 
1807 CL      -2.6210     0.3506   -15.9751 Cl    352 CCL4  -0.0812 
1808 CL      -1.1341     0.6061   -13.5704 Cl    352 CCL4  -0.0812 
1809 CL       0.6946   -13.0208   -13.8918 Cl    353 CCL4  -0.0812 
1810 C        0.1861   -14.7481   -13.6757 C.3   353 CCL4   0.3246 
1811 CL       1.6131   -15.6915   -13.2115 Cl    353 CCL4  -0.0812 
1812 CL      -0.4751   -15.4308   -15.1281 Cl    353 CCL4  -0.0812 
1813 CL      -0.9096   -14.8634   -12.2247 Cl    353 CCL4  -0.0812 
1814 CL      -4.4111   -20.8984   -17.7884 Cl    354 CCL4  -0.0812 
1815 C       -6.1924   -21.4243   -17.6391 C.3   354 CCL4   0.3246 
1816 CL      -6.2078   -23.1174   -17.4328 Cl    354 CCL4  -0.0812 
1817 CL      -7.1617   -20.9926   -19.1268 Cl    354 CCL4  -0.0812 
1818 CL      -6.8539   -20.4945   -16.2162 Cl    354 CCL4  -0.0812 
1819 CL      -0.2218    26.0417    -9.8846 Cl    355 CCL4  -0.0812 
1820 C       -0.7227    24.4059    -9.5292 C.3   355 CCL4   0.3246 
1821 CL       0.5099    23.2754   -10.0724 Cl    355 CCL4  -0.0812 
1822 CL      -2.1601    23.9967   -10.4834 Cl    355 CCL4  -0.0812 
1823 CL      -1.0521    24.2430    -7.8428 Cl    355 CCL4  -0.0812 
1824 CL      -3.8989   -20.2640   -13.9465 Cl    356 CCL4  -0.0812 
1825 C       -4.6428   -19.7734   -12.3952 C.3   356 CCL4   0.3246 
1826 CL      -3.4189   -19.2847   -11.3225 Cl    356 CCL4  -0.0812 
1827 CL      -5.5197   -21.1870   -11.7793 Cl    356 CCL4  -0.0812 
1828 CL      -5.8334   -18.4308   -12.7001 Cl    356 CCL4  -0.0812 
1829 CL       4.2250     1.5113   -17.7998 Cl    357 CCL4  -0.0812 
1830 C        2.4261     1.0957   -17.8041 C.3   357 CCL4   0.3246 
1831 CL       2.2158    -0.6036   -18.4118 Cl    357 CCL4  -0.0812 
1832 CL       1.5831     2.2174   -18.8551 Cl    357 CCL4  -0.0812 
1833 CL       1.7551     1.3787   -16.1395 Cl    357 CCL4  -0.0812 
1834 CL      -3.8582    -0.8300   -18.8384 Cl    358 CCL4  -0.0812 
1835 C       -2.3367    -0.5409   -19.6963 C.3   358 CCL4   0.3246 
1836 CL      -2.0004     1.2310   -19.2572 Cl    358 CCL4  -0.0812 
1837 CL      -2.5711    -0.6087   -21.4466 Cl    358 CCL4  -0.0812 
1838 CL      -0.9764    -1.6269   -19.3131 Cl    358 CCL4  -0.0812 
1839 CL       5.1514   -14.8228    23.5964 Cl    359 CCL4  -0.0812 
1840 C        6.1522   -16.1489    24.3501 C.3   359 CCL4   0.3246 
1841 CL       6.5694   -17.2275    23.0064 Cl    359 CCL4  -0.0812 
1842 CL       5.2160   -16.9456    25.5876 Cl    359 CCL4  -0.0812 
1843 CL       7.5798   -15.4198    25.0935 Cl    359 CCL4  -0.0812 
1844 CL      -1.8511   -12.8394     1.6898 Cl    360 CCL4  -0.0812 
1845 C       -2.1571   -12.6893    -0.0155 C.3   360 CCL4   0.3246 
1846 CL      -1.0867   -11.5210    -0.7985 Cl    360 CCL4  -0.0812 
1847 CL      -3.8275   -12.2163    -0.3634 Cl    360 CCL4  -0.0812 
1848 CL      -1.9924   -14.3114    -0.8316 Cl    360 CCL4  -0.0812 
1849 CL      -8.9525   -11.2491     2.0785 Cl    361 CCL4  -0.0812 
1850 C       -8.2502   -12.2469     0.7226 C.3   361 CCL4   0.3246 
1851 CL      -6.8665   -13.0829     1.3969 Cl    361 CCL4  -0.0812 
1852 CL      -7.6953   -11.0698    -0.4477 Cl    361 CCL4  -0.0812 
1853 CL      -9.3666   -13.4147     0.1112 Cl    361 CCL4  -0.0812 
1854 CL       2.3256   -15.5476   -19.6772 Cl    362 CCL4  -0.0812 
1855 C        2.0780   -17.1184   -18.9114 C.3   362 CCL4   0.3246 
1856 CL       0.6993   -17.0822   -17.8280 Cl    362 CCL4  -0.0812 
1857 CL       3.5351   -17.6044   -17.9663 Cl    362 CCL4  -0.0812 
1858 CL       1.8553   -18.3985   -20.1904 Cl    362 CCL4  -0.0812 
1859 CL      -4.4758   -17.3225   -22.8584 Cl    363 CCL4  -0.0812 
1860 C       -4.0041   -17.9158   -21.2479 C.3   363 CCL4   0.3246 
1861 CL      -5.1842   -17.3332   -20.0888 Cl    363 CCL4  -0.0812 
1862 CL      -2.4671   -17.1724   -20.7956 Cl    363 CCL4  -0.0812 
1863 CL      -3.7992   -19.6679   -21.3223 Cl    363 CCL4  -0.0812 
1864 CL      -0.8772   -10.9331   -19.6251 Cl    364 CCL4  -0.0812 
1865 C       -1.2632   -12.3883   -18.5771 C.3   364 CCL4   0.3246 
1866 CL      -2.9668   -12.3630   -17.9666 Cl    364 CCL4  -0.0812 
1867 CL      -0.1369   -12.5328   -17.1785 Cl    364 CCL4  -0.0812 
1868 CL      -0.8800   -13.7917   -19.6061 Cl    364 CCL4  -0.0812 
1869 CL      -8.0464   -14.4078   -20.4383 Cl    365 CCL4  -0.0812 
1870 C       -6.8011   -13.4741   -19.6023 C.3   365 CCL4   0.3246 
1871 CL      -6.9911   -13.9293   -17.8050 Cl    365 CCL4  -0.0812 
1872 CL      -7.1751   -11.6796   -19.4982 Cl    365 CCL4  -0.0812 
1873 CL      -5.2900   -13.9803   -20.1922 Cl    365 CCL4  -0.0812 
1874 CL      -3.0261   -18.0023   -16.7087 Cl    366 CCL4  -0.0812 
1875 C       -4.0402   -16.7629   -15.9848 C.3   366 CCL4   0.3246 
1876 CL      -3.7109   -15.2379   -16.8284 Cl    366 CCL4  -0.0812 
1877 CL      -3.4193   -16.5190   -14.2667 Cl    366 CCL4  -0.0812 
1878 CL      -5.7157   -17.2895   -16.0121 Cl    366 CCL4  -0.0812 
1879 CL      -6.9136     1.1033   -14.3399 Cl    367 CCL4  -0.0812 
1880 C       -8.2706     0.3405   -13.4505 C.3   367 CCL4   0.3246 
1881 CL      -9.7894     0.9231   -14.2128 Cl    367 CCL4  -0.0812 
1882 CL      -8.2615     0.9318   -11.8000 Cl    367 CCL4  -0.0812 
1883 CL      -8.0023    -1.3969   -13.5456 Cl    367 CCL4  -0.0812 
1884 CL      -5.2630     1.6893    25.9123 Cl    368 CCL4  -0.0812 
1885 C       -5.9904     0.9219    24.4108 C.3   368 CCL4   0.3246 
1886 CL      -7.2936     1.9313    23.7218 Cl    368 CCL4  -0.0812 
1887 CL      -6.1754    -0.8133    24.5914 Cl    368 CCL4  -0.0812 
1888 CL      -4.5180     1.0412    23.2677 Cl    368 CCL4  -0.0812 
1889 CL      -4.4139   -18.5307    -5.3244 Cl    369 CCL4  -0.0812 
1890 C       -3.9416   -19.9967    -6.3142 C.3   369 CCL4   0.3246 
1891 CL      -5.4857   -20.5134    -7.0670 Cl    369 CCL4  -0.0812 
1892 CL      -3.1641   -21.3169    -5.3352 Cl    369 CCL4  -0.0812 
1893 CL      -2.8622   -19.4117    -7.5714 Cl    369 CCL4  -0.0812 
1894 CL       1.6111    25.1416    -1.9867 Cl    370 CCL4  -0.0812 
1895 C        2.8772    23.8630    -1.6548 C.3   370 CCL4   0.3246 
1896 CL       4.0845    24.5688    -0.5723 Cl    370 CCL4  -0.0812 
1897 CL       3.5993    23.4477    -3.2316 Cl    370 CCL4  -0.0812 
1898 CL       2.1092    22.4506    -0.8568 Cl    370 CCL4  -0.0812 
1899 CL       2.5482   -13.2306    -3.2381 Cl    371 CCL4  -0.0812 
1900 C        3.2922   -13.9293    -1.8844 C.3   371 CCL4   0.3246 
1901 CL       2.2690   -13.8960    -0.4348 Cl    371 CCL4  -0.0812 
1902 CL       4.6672   -12.9093    -1.3780 Cl    371 CCL4  -0.0812 
1903 CL       3.8415   -15.5586    -2.2157 Cl    371 CCL4  -0.0812 
1904 CL       1.3454   -14.9690    -9.1648 Cl    372 CCL4  -0.0812 
1905 C        2.2463   -13.8963    -8.0911 C.3   372 CCL4   0.3246 
1906 CL       3.4062   -12.8089    -8.8996 Cl    372 CCL4  -0.0812 
1907 CL       3.2183   -14.9809    -6.8431 Cl    372 CCL4  -0.0812 
1908 CL       1.1403   -12.9308    -7.1114 Cl    372 CCL4  -0.0812 
1909 CL       0.2681   -11.6494   -10.3464 Cl    373 CCL4  -0.0812 
1910 C       -1.3059   -11.3717    -9.4769 C.3   373 CCL4   0.3246 
1911 CL      -1.0326   -10.4237    -8.0446 Cl    373 CCL4  -0.0812 
1912 CL      -2.0072   -12.9890    -9.0314 Cl    373 CCL4  -0.0812 
1913 CL      -2.3357   -10.4897   -10.5287 Cl    373 CCL4  -0.0812 
1914 CL       5.2768   -19.4954   -10.7834 Cl    374 CCL4  -0.0812 
1915 C        3.7384   -19.0710   -10.1949 C.3   374 CCL4   0.3246 
1916 CL       2.6565   -18.7522   -11.6374 Cl    374 CCL4  -0.0812 
1917 CL       3.8281   -17.6211    -9.2572 Cl    374 CCL4  -0.0812 
1918 CL       3.0036   -20.3539    -9.2675 Cl    374 CCL4  -0.0812 
1919 CL      -1.4242    -1.9457    -4.3745 Cl    375 CCL4  -0.0812 
1920 C       -2.0132    -0.3358    -3.6565 C.3   375 CCL4   0.3246 
1921 CL      -1.8827    -0.5816    -1.9110 Cl    375 CCL4  -0.0812 
1922 CL      -3.5940     0.2428    -4.0521 Cl    375 CCL4  -0.0812 
1923 CL      -0.7852     0.9501    -4.0780 Cl    375 CCL4  -0.0812 
1924 CL       2.0936   -18.1458    -4.3732 Cl    376 CCL4  -0.0812 
1925 C        1.0632   -19.1273    -5.3352 C.3   376 CCL4   0.3246 
1926 CL       0.5846   -18.2562    -6.8073 Cl    376 CCL4  -0.0812 
1927 CL      -0.3472   -19.4841    -4.3654 Cl    376 CCL4  -0.0812 
1928 CL       1.8626   -20.6104    -5.7490 Cl    376 CCL4  -0.0812 
1929 CL       6.6529   -10.5567    -6.5143 Cl    377 CCL4  -0.0812 
1930 C        7.2502   -11.7590    -5.4077 C.3   377 CCL4   0.3246 
1931 CL       6.4921   -13.3286    -5.8119 Cl    377 CCL4  -0.0812 
1932 CL       6.7885   -11.3519    -3.7051 Cl    377 CCL4  -0.0812 
1933 CL       9.0139   -11.9688    -5.4208 Cl    377 CCL4  -0.0812 
1934 CL      -3.6383   -15.2235    -3.5997 Cl    378 CCL4  -0.0812 
1935 C       -2.1534   -14.9361    -4.5429 C.3   378 CCL4   0.3246 
1936 CL      -2.5243   -15.2704    -6.2283 Cl    378 CCL4  -0.0812 
1937 CL      -0.9508   -16.0030    -3.8932 Cl    378 CCL4  -0.0812 
1938 CL      -1.7273   -13.1689    -4.4369 Cl    378 CCL4  -0.0812 
1939 CL      -5.3364   -15.5010   -10.3248 Cl    379 CCL4  -0.0812 
1940 C       -6.4316   -16.4633    -9.3898 C.3   379 CCL4   0.3246 
1941 CL      -8.1180   -16.1707    -9.8553 Cl    379 CCL4  -0.0812 
1942 CL      -6.3550   -15.9024    -7.7550 Cl    379 CCL4  -0.0812 
1943 CL      -6.0140   -18.1761    -9.5001 Cl    379 CCL4  -0.0812 
1944 CL      -2.1431   -20.8824    -1.9865 Cl    380 CCL4  -0.0812 
1945 C       -3.4251   -19.7939    -1.3577 C.3   380 CCL4   0.3246 
1946 CL      -3.6521   -20.3279     0.3525 Cl    380 CCL4  -0.0812 
1947 CL      -4.8728   -19.9184    -2.3269 Cl    380 CCL4  -0.0812 
1948 CL      -2.9003   -18.0908    -1.3835 Cl    380 CCL4  -0.0812 
1949 CL       0.3108    -7.2871   -15.9126 Cl    381 CCL4  -0.0812 
1950 C       -0.3795    -8.4172   -14.7162 C.3   381 CCL4   0.3246 
1951 CL      -1.5156    -9.5126   -15.7151 Cl    381 CCL4  -0.0812 
1952 CL      -1.3323    -7.3684   -13.5652 Cl    381 CCL4  -0.0812 
1953 CL       0.7893    -9.4863   -13.9519 Cl    381 CCL4  -0.0812 
1954 CL      -0.3854    -3.2848    -8.5310 Cl    382 CCL4  -0.0812 
1955 C       -0.7735    -3.6003   -10.2879 C.3   382 CCL4   0.3246 
1956 CL      -1.9726    -5.0217   -10.3047 Cl    382 CCL4  -0.0812 
1957 CL       0.7696    -4.1875   -11.0509 Cl    382 CCL4  -0.0812 
1958 CL      -1.4176    -2.2190   -11.0377 Cl    382 CCL4  -0.0812 
1959 CL      -4.2992    -4.5416   -13.1152 Cl    383 CCL4  -0.0812 
1960 C       -5.4238    -5.3326   -12.0188 C.3   383 CCL4   0.3246 
1961 CL      -5.0248    -7.0140   -11.7626 Cl    383 CCL4  -0.0812 
1962 CL      -7.0680    -5.2102   -12.7653 Cl    383 CCL4  -0.0812 
1963 CL      -5.4327    -4.5728   -10.3944 Cl    383 CCL4  -0.0812 
1964 CL       0.4283    -4.3094   -17.4778 Cl    384 CCL4  -0.0812 
1965 C       -0.5632    -3.4792   -16.1988 C.3   384 CCL4   0.3246 
1966 CL      -0.4854    -4.1572   -14.6013 Cl    384 CCL4  -0.0812 
1967 CL      -2.2891    -3.3838   -16.5817 Cl    384 CCL4  -0.0812 
1968 CL       0.0468    -1.7836   -16.1642 Cl    384 CCL4  -0.0812 
1969 CL      -5.1668     1.1248    -8.3378 Cl    385 CCL4  -0.0812 
1970 C       -4.6216    -0.5663    -8.6297 C.3   385 CCL4   0.3246 
1971 CL      -5.5816    -1.6651    -7.6523 Cl    385 CCL4  -0.0812 
1972 CL      -2.9568    -0.8414    -8.2291 Cl    385 CCL4  -0.0812 
1973 CL      -4.8130    -0.9989   -10.3079 Cl    385 CCL4  -0.0812 
1974 CL       1.8789    -5.8569   -22.8900 Cl    386 CCL4  -0.0812 
1975 C        1.2416    -4.7683   -21.6013 C.3   386 CCL4   0.3246 
1976 CL      -0.0808    -5.4901   -20.6187 Cl    386 CCL4  -0.0812 
1977 CL       0.6957    -3.3174   -22.4285 Cl    386 CCL4  -0.0812 
1978 CL       2.5978    -4.2371   -20.6494 Cl    386 CCL4  -0.0812 
1979 CL      -4.4043   -11.0540    25.4224 Cl    387 CCL4  -0.0812 
1980 C       -3.8920    -9.6022    24.6607 C.3   387 CCL4   0.3246 
1981 CL      -4.0924    -8.2587    25.7423 Cl    387 CCL4  -0.0812 
1982 CL      -4.7374    -9.1922    23.1865 Cl    387 CCL4  -0.0812 
1983 CL      -2.1056    -9.6371    24.3452 Cl    387 CCL4  -0.0812 
1984 CL      -3.9359    -3.7868    26.1689 Cl    388 CCL4  -0.0812 
1985 C       -3.9904    -4.3631    24.5247 C.3   388 CCL4   0.3246 
1986 CL      -3.8837    -3.0532    23.3330 Cl    388 CCL4  -0.0812 
1987 CL      -5.5324    -5.1136    24.3811 Cl    388 CCL4  -0.0812 
1988 CL      -2.5978    -5.3949    24.1906 Cl    388 CCL4  -0.0812 
1989 CL      -7.0033    -2.5537   -19.1161 Cl    389 CCL4  -0.0812 
1990 C       -7.4058    -2.6811   -17.3072 C.3   389 CCL4   0.3246 
1991 CL      -8.2160    -4.2948   -17.1207 Cl    389 CCL4  -0.0812 
1992 CL      -8.7297    -1.5215   -16.9688 Cl    389 CCL4  -0.0812 
1993 CL      -5.9673    -2.6682   -16.3502 Cl    389 CCL4  -0.0812 
1994 CL      -4.6066    -9.0965   -17.3634 Cl    390 CCL4  -0.0812 
1995 C       -4.3460    -7.3839   -17.4584 C.3   390 CCL4   0.3246 
1996 CL      -5.4679    -6.5292   -18.4226 Cl    390 CCL4  -0.0812 
1997 CL      -2.6225    -7.1863   -18.2297 Cl    390 CCL4  -0.0812 
1998 CL      -4.1071    -6.7020   -15.7999 Cl    390 CCL4  -0.0812 
1999 CL       4.1053   -11.1265    24.7302 Cl    391 CCL4  -0.0812 
2000 C        2.4037   -11.0684    24.4448 C.3   391 CCL4   0.3246 
2001 CL       1.6977   -12.5317    24.9037 Cl    391 CCL4  -0.0812 
2002 CL       2.0679   -10.6179    22.7049 Cl    391 CCL4  -0.0812 
2003 CL       1.7489    -9.7001    25.4617 Cl    391 CCL4  -0.0812 
2004 CL       3.8550    -4.2498    -4.1001 Cl    392 CCL4  -0.0812 
2005 C        2.2701    -4.2595    -3.2990 C.3   392 CCL4   0.3246 
2006 CL       2.1333    -5.4690    -1.9824 Cl    392 CCL4  -0.0812 
2007 CL       0.9237    -4.4958    -4.5377 Cl    392 CCL4  -0.0812 
2008 CL       1.9118    -2.5766    -2.7455 Cl    392 CCL4  -0.0812 
2009 CL       1.1992    -6.4477    -8.0513 Cl    393 CCL4  -0.0812 
2010 C        1.8569    -7.6609    -9.1763 C.3   393 CCL4   0.3246 
2011 CL       0.7145    -8.0730   -10.4258 Cl    393 CCL4  -0.0812 
2012 CL       2.3512    -9.0760    -8.3429 Cl    393 CCL4  -0.0812 
2013 CL       3.1966    -6.9505   -10.0557 Cl    393 CCL4  -0.0812 
2014 CL       5.7207    -4.5804    -9.5820 Cl    394 CCL4  -0.0812 
2015 C        5.2255    -4.7836    -7.7776 C.3   394 CCL4   0.3246 
2016 CL       3.5481    -4.0851    -7.4827 Cl    394 CCL4  -0.0812 
2017 CL       6.4520    -3.8381    -6.7945 Cl    394 CCL4  -0.0812 
2018 CL       5.3205    -6.4863    -7.2976 Cl    394 CCL4  -0.0812 
2019 CL      -3.2819    -9.5644    -2.9701 Cl    395 CCL4  -0.0812 
2020 C       -4.8059    -9.9740    -3.7494 C.3   395 CCL4   0.3246 
2021 CL      -6.1992    -9.2292    -3.0269 Cl    395 CCL4  -0.0812 
2022 CL      -4.9643   -11.7555    -3.7741 Cl    395 CCL4  -0.0812 
2023 CL      -4.7229    -9.4740    -5.4099 Cl    395 CCL4  -0.0812 
2024 CL      -3.3899    -4.3523    -6.5441 Cl    396 CCL4  -0.0812 
2025 C       -3.7484    -6.1367    -6.5287 C.3   396 CCL4   0.3246 
2026 CL      -4.8956    -6.7102    -7.7078 Cl    396 CCL4  -0.0812 
2027 CL      -4.5120    -6.3704    -4.8769 Cl    396 CCL4  -0.0812 
2028 CL      -2.2609    -7.1450    -6.5859 Cl    396 CCL4  -0.0812 
2029 CL       2.9372     1.3310    -7.0005 Cl    397 CCL4  -0.0812 
2030 C        3.0546    -0.4295    -7.1499 C.3   397 CCL4   0.3246 
2031 CL       4.6640    -0.9434    -6.7286 Cl    397 CCL4  -0.0812 
2032 CL       2.9741    -0.8822    -8.8821 Cl    397 CCL4  -0.0812 
2033 CL       1.8953    -1.2072    -6.1017 Cl    397 CCL4  -0.0812 
2034 CL      -1.4429    -6.6874    -2.9939 Cl    398 CCL4  -0.0812 
2035 C       -1.8918    -6.1978    -1.3463 C.3   398 CCL4   0.3246 
2036 CL      -1.2149    -7.6132    -0.4120 Cl    398 CCL4  -0.0812 
2037 CL      -3.6700    -6.1308    -1.1234 Cl    398 CCL4  -0.0812 
2038 CL      -1.2139    -4.6362    -0.8996 Cl    398 CCL4  -0.0812 
2039 CL       2.8003    -9.7624    -2.4272 Cl    399 CCL4  -0.0812 
2040 C        2.1665    -9.6297    -4.0860 C.3   399 CCL4   0.3246 
2041 CL       3.1759   -10.4431    -5.2726 Cl    399 CCL4  -0.0812 
2042 CL       1.9557    -7.8326    -4.5409 Cl    399 CCL4  -0.0812 
2043 CL       0.6053   -10.3804    -4.1864 Cl    399 CCL4  -0.0812 
2044 CL      -8.3660    -7.2577    -5.7482 Cl    400 CCL4  -0.0812 
2045 C       -8.4569    -6.3950    -7.3054 C.3   400 CCL4   0.3246 
2046 CL      -7.6286    -4.7541    -7.3094 Cl    400 CCL4  -0.0812 
2047 CL     -10.1840    -5.8800    -7.4798 Cl    400 CCL4  -0.0812 
2048 CL      -7.8595    -7.3609    -8.7061 Cl    400 CCL4  -0.0812 
2049 CL      -7.3252   -10.7392    -6.9783 Cl    401 CCL4  -0.0812 
2050 C       -6.2414   -11.3372    -8.2473 C.3   401 CCL4   0.3246 
2051 CL      -7.1878   -12.6688    -8.9514 Cl    401 CCL4  -0.0812 
2052 CL      -4.9093   -12.1892    -7.4340 Cl    401 CCL4  -0.0812 
2053 CL      -5.7337   -10.0859    -9.4151 Cl    401 CCL4  -0.0812 
2054 CL       5.9968    -7.2601    -2.8487 Cl    402 CCL4  -0.0812 
2055 C        6.1080    -7.4429    -1.1101 C.3   402 CCL4   0.3246 
2056 CL       7.7892    -6.7627    -0.6772 Cl    402 CCL4  -0.0812 
2057 CL       6.0004    -9.1988    -0.7180 Cl    402 CCL4  -0.0812 
2058 CL       4.9141    -6.5073    -0.2304 Cl    402 CCL4  -0.0812 
2059 CL       6.4362   -14.9519   -14.5244 Cl    403 CCL4  -0.0812 
2060 C        5.8861   -16.3238   -13.5667 C.3   403 CCL4   0.3246 
2061 CL       4.8996   -15.7721   -12.2014 Cl    403 CCL4  -0.0812 
2062 CL       7.3158   -17.1236   -12.9651 Cl    403 CCL4  -0.0812 
2063 CL       4.8492   -17.3927   -14.6339 Cl    403 CCL4  -0.0812 
2064 CL      10.2765   -18.1791   -14.5722 Cl    404 CCL4  -0.0812 
2065 C       10.9997   -16.5964   -14.5344 C.3   404 CCL4   0.3246 
2066 CL      11.3321   -16.2299   -12.7467 Cl    404 CCL4  -0.0812 
2067 CL       9.8621   -15.3312   -15.0590 Cl    404 CCL4  -0.0812 
2068 CL      12.4840   -16.4018   -15.4635 Cl    404 CCL4  -0.0812 
2069 CL       4.7488   -23.2623   -21.6323 Cl    405 CCL4  -0.0812 
2070 C        5.6399   -21.7213   -21.2889 C.3   405 CCL4   0.3246 
2071 CL       7.1568   -22.0894   -20.3224 Cl    405 CCL4  -0.0812 
2072 CL       4.5531   -20.6306   -20.3794 Cl    405 CCL4  -0.0812 
2073 CL       6.0782   -20.9430   -22.8266 Cl    405 CCL4  -0.0812 
2074 CL       9.3781    -2.9471    24.1773 Cl    406 CCL4  -0.0812 
2075 C        9.9263    -1.3591    24.5773 C.3   406 CCL4   0.3246 
2076 CL      10.3032    -0.3951    23.2014 Cl    406 CCL4  -0.0812 
2077 CL      11.2474    -1.3997    25.7058 Cl    406 CCL4  -0.0812 
2078 CL       8.6244    -0.4639    25.4106 Cl    406 CCL4  -0.0812 
2079 CL       7.2355   -15.5122   -18.3503 Cl    407 CCL4  -0.0812 
2080 C        8.1030   -16.9968   -18.2952 C.3   407 CCL4   0.3246 
2081 CL       7.5840   -18.2349   -19.5078 Cl    407 CCL4  -0.0812 
2082 CL       7.7480   -17.8026   -16.6111 Cl    407 CCL4  -0.0812 
2083 CL       9.8985   -16.8404   -18.3381 Cl    407 CCL4  -0.0812 
2084 CL       5.7515   -20.5986   -16.3219 Cl    408 CCL4  -0.0812 
2085 C        6.1257   -21.4169   -14.8069 C.3   408 CCL4   0.3246 
2086 CL       7.4218   -20.5998   -13.9551 Cl    408 CCL4  -0.0812 
2087 CL       6.6655   -23.1078   -15.1024 Cl    408 CCL4  -0.0812 
2088 CL       4.6414   -21.6214   -13.7247 Cl    408 CCL4  -0.0812 
2089 CL       7.6157    -2.9466   -12.6779 Cl    409 CCL4  -0.0812 
2090 C        9.2555    -2.5055   -13.1775 C.3   409 CCL4   0.3246 
2091 CL      10.1916    -2.1423   -11.8023 Cl    409 CCL4  -0.0812 
2092 CL       9.1791    -0.9807   -14.0712 Cl    409 CCL4  -0.0812 
2093 CL       9.8638    -3.8444   -14.1361 Cl    409 CCL4  -0.0812 
2094 CL       9.5736   -11.6909   -21.2934 Cl    410 CCL4  -0.0812 
2095 C        7.8888   -11.3843   -21.7370 C.3   410 CCL4   0.3246 
2096 CL       6.8608   -12.1982   -20.5478 Cl    410 CCL4  -0.0812 
2097 CL       7.4727   -11.9820   -23.3795 Cl    410 CCL4  -0.0812 
2098 CL       7.3559    -9.6918   -21.6383 Cl    410 CCL4  -0.0812 
2099 CL       5.0043    -2.9775   -18.6686 Cl    411 CCL4  -0.0812 
2100 C        6.6887    -2.7258   -18.1996 C.3   411 CCL4   0.3246 
2101 CL       6.9884    -3.3463   -16.5818 Cl    411 CCL4  -0.0812 
2102 CL       6.8180    -0.9018   -18.1914 Cl    411 CCL4  -0.0812 
2103 CL       7.6859    -3.5379   -19.5269 Cl    411 CCL4  -0.0812 
2104 CL       9.9778   -23.7517   -18.0504 Cl    412 CCL4  -0.0812 
2105 C       10.0616   -22.2628   -17.1125 C.3   412 CCL4   0.3246 
2106 CL      10.0638   -22.4624   -15.4115 Cl    412 CCL4  -0.0812 
2107 CL       8.7765   -21.1500   -17.5855 Cl    412 CCL4  -0.0812 
2108 CL      11.4814   -21.1996   -17.6289 Cl    412 CCL4  -0.0812 
2109 CL       9.6677   -15.4173    -9.1261 Cl    413 CCL4  -0.0812 
2110 C        8.4094   -14.3266    -9.7728 C.3   413 CCL4   0.3246 
2111 CL       6.7031   -15.0305    -9.2446 Cl    413 CCL4  -0.0812 
2112 CL       8.4298   -14.2547   -11.5443 Cl    413 CCL4  -0.0812 
2113 CL       8.3381   -12.7211    -8.9884 Cl    413 CCL4  -0.0812 
2114 CL       5.6816   -11.2038   -10.7082 Cl    414 CCL4  -0.0812 
2115 C        5.0038   -10.8543   -12.2716 C.3   414 CCL4   0.3246 
2116 CL       4.1854   -12.3516   -12.7030 Cl    414 CCL4  -0.0812 
2117 CL       6.1381   -10.4428   -13.6047 Cl    414 CCL4  -0.0812 
2118 CL       3.7637    -9.5711   -12.2438 Cl    414 CCL4  -0.0812 
2119 CL       8.0331   -18.3745    -8.2338 Cl    415 CCL4  -0.0812 
2120 C        9.5121   -19.0581    -8.9232 C.3   415 CCL4   0.3246 
2121 CL       9.7267   -18.2954   -10.5622 Cl    415 CCL4  -0.0812 
2122 CL       9.4076   -20.8097    -9.0344 Cl    415 CCL4  -0.0812 
2123 CL      10.9238   -18.6704    -7.9383 Cl    415 CCL4  -0.0812 
2124 CL      -6.9867   -16.8195    -4.0578 Cl    416 CCL4  -0.0812 
2125 C       -7.4149   -15.8179    -2.6838 C.3   416 CCL4   0.3246 
2126 CL      -7.7868   -14.1400    -3.1158 Cl    416 CCL4  -0.0812 
2127 CL      -8.9804   -16.3884    -1.9791 Cl    416 CCL4  -0.0812 
2128 CL      -6.1721   -15.9298    -1.4050 Cl    416 CCL4  -0.0812 
2129 CL       6.2518     1.8671    -9.4268 Cl    417 CCL4  -0.0812 
2130 C        7.5220     0.6218    -9.5774 C.3   417 CCL4   0.3246 
2131 CL       8.5038     0.6167    -8.0793 Cl    417 CCL4  -0.0812 
2132 CL       8.3763     1.0073   -11.1548 Cl    417 CCL4  -0.0812 
2133 CL       6.8056    -1.0141    -9.6680 Cl    417 CCL4  -0.0812 
2134 CL       6.1143    -1.4168    -3.2633 Cl    418 CCL4  -0.0812 
2135 C        7.7768    -2.0138    -3.4301 C.3   418 CCL4   0.3246 
2136 CL       8.3581    -1.3563    -5.0128 Cl    418 CCL4  -0.0812 
2137 CL       7.9031    -3.7427    -3.2717 Cl    418 CCL4  -0.0812 
2138 CL       8.7329    -1.2514    -2.0730 Cl    418 CCL4  -0.0812 
2139 CL       9.8629   -16.5350    -0.9993 Cl    419 CCL4  -0.0812 
2140 C        8.8330   -15.7596    -2.2544 C.3   419 CCL4   0.3246 
2141 CL       7.7827   -16.9903    -2.9541 Cl    419 CCL4  -0.0812 
2142 CL       9.7876   -14.9569    -3.5031 Cl    419 CCL4  -0.0812 
2143 CL       7.8022   -14.5629    -1.3006 Cl    419 CCL4  -0.0812 
2144 CL       5.2622   -20.3621    -4.2637 Cl    420 CCL4  -0.0812 
2145 C        6.3765   -20.9957    -5.5660 C.3   420 CCL4   0.3246 
2146 CL       6.5831   -22.7283    -5.3621 Cl    420 CCL4  -0.0812 
2147 CL       7.8219   -20.0930    -5.2036 Cl    420 CCL4  -0.0812 
2148 CL       5.7205   -20.4961    -7.1287 Cl    420 CCL4  -0.0812 
2149 CL       7.8183   -20.2766    -0.8389 Cl    421 CCL4  -0.0812 
2150 C        8.4868   -21.9341    -1.0942 C.3   421 CCL4   0.3246 
2151 CL      10.0594   -21.8435    -1.8420 Cl    421 CCL4  -0.0812 
2152 CL       7.4287   -22.8836    -2.1655 Cl    421 CCL4  -0.0812 
2153 CL       8.7550   -22.6295     0.5644 Cl    421 CCL4  -0.0812 
2154 CL       6.0922    -3.6554     1.9717 Cl    422 CCL4  -0.0812 
2155 C        5.0632    -2.3991     1.3775 C.3   422 CCL4   0.3246 
2156 CL       6.1097    -1.3800     0.3581 Cl    422 CCL4  -0.0812 
2157 CL       4.2459    -1.5470     2.7922 Cl    422 CCL4  -0.0812 
2158 CL       3.7084    -3.0796     0.3927 Cl    422 CCL4  -0.0812 
2159 CL       4.6602    -9.5177   -19.1601 Cl    423 CCL4  -0.0812 
2160 C        4.2349    -7.7198   -19.5314 C.3   423 CCL4   0.3246 
2161 CL       5.1446    -6.6031   -18.5205 Cl    423 CCL4  -0.0812 
2162 CL       2.5005    -7.4990   -19.1127 Cl    423 CCL4  -0.0812 
2163 CL       4.6311    -7.3648   -21.1965 Cl    423 CCL4  -0.0812 
2164 CL       9.2821    -6.7089   -11.2120 Cl    424 CCL4  -0.0812 
2165 C        8.2645    -7.9710   -10.4203 C.3   424 CCL4   0.3246 
2166 CL       8.6144    -8.0658    -8.6626 Cl    424 CCL4  -0.0812 
2167 CL       8.5801    -9.5713   -11.1039 Cl    424 CCL4  -0.0812 
2168 CL       6.5005    -7.6687   -10.7573 Cl    424 CCL4  -0.0812 
2169 CL       3.5520    -4.7604   -15.8298 Cl    425 CCL4  -0.0812 
2170 C        3.9843    -6.0261   -14.6871 C.3   425 CCL4   0.3246 
2171 CL       2.6825    -5.9980   -13.5448 Cl    425 CCL4  -0.0812 
2172 CL       5.5559    -5.6636   -13.7906 Cl    425 CCL4  -0.0812 
2173 CL       4.2435    -7.5430   -15.4621 Cl    425 CCL4  -0.0812 
2174 CL       3.8534    -1.3398   -14.6406 Cl    426 CCL4  -0.0812 
2175 C        3.4785    -1.1329   -12.9582 C.3   426 CCL4   0.3246 
2176 CL       4.4220     0.2911   -12.4442 Cl    426 CCL4  -0.0812 
2177 CL       3.9857    -2.5671   -12.0828 Cl    426 CCL4  -0.0812 
2178 CL       1.7983    -0.8289   -12.5806 Cl    426 CCL4  -0.0812 
2179 CL      -8.5612   -10.4554     9.3818 Cl    427 CCL4  -0.0812 
2180 C       -8.7954    -8.8140    10.0460 C.3   427 CCL4   0.3246 
2181 CL     -10.2902    -8.1870     9.3377 Cl    427 CCL4  -0.0812 
2182 CL      -7.3725    -7.7574     9.8235 Cl    427 CCL4  -0.0812 
2183 CL      -9.0071    -9.0247    11.8094 Cl    427 CCL4  -0.0812 
2184 CL       3.0957   -12.4097     6.2410 Cl    428 CCL4  -0.0812 
2185 C        3.5971   -12.4098     7.8614 C.3   428 CCL4   0.3246 
2186 CL       3.2606   -13.9054     8.6462 Cl    428 CCL4  -0.0812 
2187 CL       3.0389   -11.0544     8.7476 Cl    428 CCL4  -0.0812 
2188 CL       5.3891   -12.2833     7.8392 Cl    428 CCL4  -0.0812 
2189 CL       0.9804   -21.5792    12.0286 Cl    429 CCL4  -0.0812 
2190 C        0.3826   -20.5613    10.6335 C.3   429 CCL4   0.3246 
2191 CL      -0.8559   -21.3401     9.5509 Cl    429 CCL4  -0.0812 
2192 CL       1.7602   -20.0006     9.6344 Cl    429 CCL4  -0.0812 
2193 CL      -0.3482   -19.0226    11.3740 Cl    429 CCL4  -0.0812 
2194 CL      -4.7512   -10.1031    11.2755 Cl    430 CCL4  -0.0812 
2195 C       -4.4650   -11.8581    11.4027 C.3   430 CCL4   0.3246 
2196 CL      -4.7097   -12.3733    13.0934 Cl    430 CCL4  -0.0812 
2197 CL      -2.9258   -12.4575    10.8392 Cl    430 CCL4  -0.0812 
2198 CL      -5.7190   -12.6713    10.4348 Cl    430 CCL4  -0.0812 
2199 CL      -0.9794    24.0186   -21.2090 Cl    431 CCL4  -0.0812 
2200 C        0.2031    24.4268   -19.9165 C.3   431 CCL4   0.3246 
2201 CL       0.6713    22.8760   -19.2675 Cl    431 CCL4  -0.0812 
2202 CL      -0.7528    25.3035   -18.6954 Cl    431 CCL4  -0.0812 
2203 CL       1.5572    25.3245   -20.4802 Cl    431 CCL4  -0.0812 
2204 CL      -3.3018    -1.2211    11.4578 Cl    432 CCL4  -0.0812 
2205 C       -2.7676     0.3403    10.7724 C.3   432 CCL4   0.3246 
2206 CL      -3.6958     1.7553    11.3062 Cl    432 CCL4  -0.0812 
2207 CL      -2.6210     0.3506     9.0249 Cl    432 CCL4  -0.0812 
2208 CL      -1.1341     0.6061    11.4296 Cl    432 CCL4  -0.0812 
2209 CL       0.6946   -13.0208    11.1082 Cl    433 CCL4  -0.0812 
2210 C        0.1861   -14.7481    11.3243 C.3   433 CCL4   0.3246 
2211 CL       1.6131   -15.6915    11.7885 Cl    433 CCL4  -0.0812 
2212 CL      -0.4751   -15.4308     9.8719 Cl    433 CCL4  -0.0812 
2213 CL      -0.9096   -14.8634    12.7753 Cl    433 CCL4  -0.0812 
2214 CL      -4.4111   -20.8984     7.2116 Cl    434 CCL4  -0.0812 
2215 C       -6.1924   -21.4243     7.3609 C.3   434 CCL4   0.3246 
2216 CL      -6.2078   -23.1174     7.5672 Cl    434 CCL4  -0.0812 
2217 CL      -7.1617   -20.9926     5.8732 Cl    434 CCL4  -0.0812 
2218 CL      -6.8539   -20.4945     8.7838 Cl    434 CCL4  -0.0812 
2219 CL      -0.2218    26.0417    15.1154 Cl    435 CCL4  -0.0812 
2220 C       -0.7227    24.4059    15.4708 C.3   435 CCL4   0.3246 
2221 CL       0.5099    23.2754    14.9276 Cl    435 CCL4  -0.0812 
2222 CL      -2.1601    23.9967    14.5166 Cl    435 CCL4  -0.0812 
2223 CL      -1.0521    24.2430    17.1572 Cl    435 CCL4  -0.0812 
2224 CL      -3.8989   -20.2640    11.0535 Cl    436 CCL4  -0.0812 
2225 C       -4.6428   -19.7734    12.6048 C.3   436 CCL4   0.3246 
2226 CL      -3.4189   -19.2847    13.6775 Cl    436 CCL4  -0.0812 
2227 CL      -5.5197   -21.1870    13.2207 Cl    436 CCL4  -0.0812 
2228 CL      -5.8334   -18.4308    12.2999 Cl    436 CCL4  -0.0812 
2229 CL       4.2250     1.5113     7.2002 Cl    437 CCL4  -0.0812 
2230 C        2.4261     1.0957     7.1959 C.3   437 CCL4   0.3246 
2231 CL       2.2158    -0.6036     6.5882 Cl    437 CCL4  -0.0812 
2232 CL       1.5831     2.2174     6.1449 Cl    437 CCL4  -0.0812 
2233 CL       1.7551     1.3787     8.8605 Cl    437 CCL4  -0.0812 
2234 CL       5.1514   -14.8228     1.5672 Cl    438 CCL4  -0.0812 
2235 C        6.1522   -16.1489     2.3210 C.3   438 CCL4   0.3246 
2236 CL       6.5694   -17.2275     0.9772 Cl    438 CCL4  -0.0812 
2237 CL       5.2160   -16.9456     3.5585 Cl    438 CCL4  -0.0812 
2238 CL       7.5798   -15.4198     3.0643 Cl    438 CCL4  -0.0812 
2239 CL       2.3256   -15.5476     5.3228 Cl    439 CCL4  -0.0812 
2240 C        2.0780   -17.1184     6.0886 C.3   439 CCL4   0.3246 
2241 CL       0.6993   -17.0822     7.1720 Cl    439 CCL4  -0.0812 
2242 CL       3.5351   -17.6044     7.0337 Cl    439 CCL4  -0.0812 
2243 CL       1.8553   -18.3985     4.8096 Cl    439 CCL4  -0.0812 
2244 CL      -4.4758   -17.3225     2.1416 Cl    440 CCL4  -0.0812 
2245 C       -4.0041   -17.9158     3.7521 C.3   440 CCL4   0.3246 
2246 CL      -5.1842   -17.3332     4.9112 Cl    440 CCL4  -0.0812 
2247 CL      -2.4671   -17.1724     4.2044 Cl    440 CCL4  -0.0812 
2248 CL      -3.7992   -19.6679     3.6777 Cl    440 CCL4  -0.0812 
2249 CL      -0.8772   -10.9331     5.3749 Cl    441 CCL4  -0.0812 
2250 C       -1.2632   -12.3883     6.4229 C.3   441 CCL4   0.3246 
2251 CL      -2.9668   -12.3630     7.0334 Cl    441 CCL4  -0.0812 
2252 CL      -0.1369   -12.5328     7.8215 Cl    441 CCL4  -0.0812 
2253 CL      -0.8800   -13.7917     5.3939 Cl    441 CCL4  -0.0812 
2254 CL      -8.0464   -14.4078     4.5617 Cl    442 CCL4  -0.0812 
2255 C       -6.8011   -13.4741     5.3977 C.3   442 CCL4   0.3246 
2256 CL      -6.9911   -13.9293     7.1950 Cl    442 CCL4  -0.0812 
2257 CL      -7.1751   -11.6796     5.5018 Cl    442 CCL4  -0.0812 
2258 CL      -5.2900   -13.9803     4.8078 Cl    442 CCL4  -0.0812 
2259 CL      -3.0261   -18.0023     8.2913 Cl    443 CCL4  -0.0812 
2260 C       -4.0402   -16.7629     9.0152 C.3   443 CCL4   0.3246 
2261 CL      -3.7109   -15.2379     8.1716 Cl    443 CCL4  -0.0812 
2262 CL      -3.4193   -16.5190    10.7333 Cl    443 CCL4  -0.0812 
2263 CL      -5.7157   -17.2895     8.9879 Cl    443 CCL4  -0.0812 
2264 CL      -6.9136     1.1033    10.6601 Cl    444 CCL4  -0.0812 
2265 C       -8.2706     0.3405    11.5495 C.3   444 CCL4   0.3246 
2266 CL      -9.7894     0.9231    10.7872 Cl    444 CCL4  -0.0812 
2267 CL      -8.2615     0.9318    13.2000 Cl    444 CCL4  -0.0812 
2268 CL      -8.0023    -1.3969    11.4544 Cl    444 CCL4  -0.0812 
2269 CL      -4.4139   -18.5307    19.6756 Cl    445 CCL4  -0.0812 
2270 C       -3.9416   -19.9967    18.6858 C.3   445 CCL4   0.3246 
2271 CL      -5.4857   -20.5134    17.9330 Cl    445 CCL4  -0.0812 
2272 CL      -3.1641   -21.3169    19.6648 Cl    445 CCL4  -0.0812 
2273 CL      -2.8622   -19.4117    17.4286 Cl    445 CCL4  -0.0812 
2274 CL       1.3454   -14.9690    15.8352 Cl    446 CCL4  -0.0812 
2275 C        2.2463   -13.8963    16.9089 C.3   446 CCL4   0.3246 
2276 CL       3.4062   -12.8089    16.1004 Cl    446 CCL4  -0.0812 
2277 CL       3.2183   -14.9809    18.1569 Cl    446 CCL4  -0.0812 
2278 CL       1.1403   -12.9308    17.8886 Cl    446 CCL4  -0.0812 
2279 CL       0.2681   -11.6494    14.6536 Cl    447 CCL4  -0.0812 
2280 C       -1.3059   -11.3717    15.5231 C.3   447 CCL4   0.3246 
2281 CL      -1.0326   -10.4237    16.9554 Cl    447 CCL4  -0.0812 
2282 CL      -2.0072   -12.9890    15.9686 Cl    447 CCL4  -0.0812 
2283 CL      -2.3357   -10.4897    14.4713 Cl    447 CCL4  -0.0812 
2284 CL       5.2768   -19.4954    14.2166 Cl    448 CCL4  -0.0812 
2285 C        3.7384   -19.0710    14.8051 C.3   448 CCL4   0.3246 
2286 CL       2.6565   -18.7522    13.3626 Cl    448 CCL4  -0.0812 
2287 CL       3.8281   -17.6211    15.7428 Cl    448 CCL4  -0.0812 
2288 CL       3.0036   -20.3539    15.7325 Cl    448 CCL4  -0.0812 
2289 CL      -1.4242    -1.9457    20.6255 Cl    449 CCL4  -0.0812 
2290 C       -2.0132    -0.3358    21.3435 C.3   449 CCL4   0.3246 
2291 CL      -1.8827    -0.5816    23.0890 Cl    449 CCL4  -0.0812 
2292 CL      -3.5940     0.2428    20.9479 Cl    449 CCL4  -0.0812 
2293 CL      -0.7852     0.9501    20.9220 Cl    449 CCL4  -0.0812 
2294 CL       2.0936   -18.1458    20.6268 Cl    450 CCL4  -0.0812 
2295 C        1.0632   -19.1273    19.6648 C.3   450 CCL4   0.3246 
2296 CL       0.5846   -18.2562    18.1927 Cl    450 CCL4  -0.0812 
2297 CL      -0.3472   -19.4841    20.6346 Cl    450 CCL4  -0.0812 
2298 CL       1.8626   -20.6104    19.2510 Cl    450 CCL4  -0.0812 
2299 CL       6.6529   -10.5567    18.4857 Cl    451 CCL4  -0.0812 
2300 C        7.2502   -11.7590    19.5923 C.3   451 CCL4   0.3246 
2301 CL       6.4921   -13.3286    19.1881 Cl    451 CCL4  -0.0812 
2302 CL       6.7885   -11.3519    21.2949 Cl    451 CCL4  -0.0812 
2303 CL       9.0139   -11.9688    19.5792 Cl    451 CCL4  -0.0812 
2304 CL      -3.6383   -15.2235    21.4003 Cl    452 CCL4  -0.0812 
2305 C       -2.1534   -14.9361    20.4571 C.3   452 CCL4   0.3246 
2306 CL      -2.5243   -15.2704    18.7717 Cl    452 CCL4  -0.0812 
2307 CL      -0.9508   -16.0030    21.1068 Cl    452 CCL4  -0.0812 
2308 CL      -1.7273   -13.1689    20.5631 Cl    452 CCL4  -0.0812 
2309 CL      -5.3364   -15.5010    14.6752 Cl    453 CCL4  -0.0812 
2310 C       -6.4316   -16.4633    15.6102 C.3   453 CCL4   0.3246 
2311 CL      -8.1180   -16.1707    15.1447 Cl    453 CCL4  -0.0812 
2312 CL      -6.3550   -15.9024    17.2450 Cl    453 CCL4  -0.0812 
2313 CL      -6.0140   -18.1761    15.4999 Cl    453 CCL4  -0.0812 
2314 CL       0.3108    -7.2871     9.0874 Cl    454 CCL4  -0.0812 
2315 C       -0.3795    -8.4172    10.2838 C.3   454 CCL4   0.3246 
2316 CL      -1.5156    -9.5126     9.2849 Cl    454 CCL4  -0.0812 
2317 CL      -1.3323    -7.3684    11.4348 Cl    454 CCL4  -0.0812 
2318 CL       0.7893    -9.4863    11.0481 Cl    454 CCL4  -0.0812 
2319 CL      -0.3854    -3.2848    16.4690 Cl    455 CCL4  -0.0812 
2320 C       -0.7735    -3.6003    14.7121 C.3   455 CCL4   0.3246 
2321 CL      -1.9726    -5.0217    14.6953 Cl    455 CCL4  -0.0812 
2322 CL       0.7696    -4.1875    13.9491 Cl    455 CCL4  -0.0812 
2323 CL      -1.4176    -2.2190    13.9623 Cl    455 CCL4  -0.0812 
2324 CL      -4.2992    -4.5416    11.8848 Cl    456 CCL4  -0.0812 
2325 C       -5.4238    -5.3326    12.9812 C.3   456 CCL4   0.3246 
2326 CL      -5.0248    -7.0140    13.2374 Cl    456 CCL4  -0.0812 
2327 CL      -7.0680    -5.2102    12.2347 Cl    456 CCL4  -0.0812 
2328 CL      -5.4327    -4.5728    14.6056 Cl    456 CCL4  -0.0812 
2329 CL       0.4283    -4.3094     7.5222 Cl    457 CCL4  -0.0812 
2330 C       -0.5632    -3.4792     8.8012 C.3   457 CCL4   0.3246 
2331 CL      -0.4854    -4.1572    10.3987 Cl    457 CCL4  -0.0812 
2332 CL      -2.2891    -3.3838     8.4183 Cl    457 CCL4  -0.0812 
2333 CL       0.0468    -1.7836     8.8358 Cl    457 CCL4  -0.0812 
2334 CL      -5.1668     1.1248    16.6622 Cl    458 CCL4  -0.0812 
2335 C       -4.6216    -0.5663    16.3703 C.3   458 CCL4   0.3246 
2336 CL      -5.5816    -1.6651    17.3477 Cl    458 CCL4  -0.0812 
2337 CL      -2.9568    -0.8414    16.7709 Cl    458 CCL4  -0.0812 
2338 CL      -4.8130    -0.9989    14.6921 Cl    458 CCL4  -0.0812 
2339 CL       1.8789    -5.8569     2.1100 Cl    459 CCL4  -0.0812 
2340 C        1.2416    -4.7683     3.3987 C.3   459 CCL4   0.3246 
2341 CL      -0.0808    -5.4901     4.3813 Cl    459 CCL4  -0.0812 
2342 CL       0.6957    -3.3174     2.5715 Cl    459 CCL4  -0.0812 
2343 CL       2.5978    -4.2371     4.3506 Cl    459 CCL4  -0.0812 
2344 CL      -4.4043   -11.0540     3.3933 Cl    460 CCL4  -0.0812 
2345 C       -3.8920    -9.6022     2.6315 C.3   460 CCL4   0.3246 
2346 CL      -4.0924    -8.2587     3.7131 Cl    460 CCL4  -0.0812 
2347 CL      -4.7374    -9.1922     1.1573 Cl    460 CCL4  -0.0812 
2348 CL      -2.1056    -9.6371     2.3160 Cl    460 CCL4  -0.0812 
2349 CL      -3.9359    -3.7868     4.1397 Cl    461 CCL4  -0.0812 
2350 C       -3.9904    -4.3631     2.4956 C.3   461 CCL4   0.3246 
2351 CL      -3.8837    -3.0532     1.3038 Cl    461 CCL4  -0.0812 
2352 CL      -5.5324    -5.1136     2.3520 Cl    461 CCL4  -0.0812 
2353 CL      -2.5978    -5.3949     2.1615 Cl    461 CCL4  -0.0812 
2354 CL      -7.0033    -2.5537     5.8839 Cl    462 CCL4  -0.0812 
2355 C       -7.4058    -2.6811     7.6928 C.3   462 CCL4   0.3246 
2356 CL      -8.2160    -4.2948     7.8793 Cl    462 CCL4  -0.0812 
2357 CL      -8.7297    -1.5215     8.0312 Cl    462 CCL4  -0.0812 
2358 CL      -5.9673    -2.6682     8.6498 Cl    462 CCL4  -0.0812 
2359 CL      -4.6066    -9.0965     7.6366 Cl    463 CCL4  -0.0812 
2360 C       -4.3460    -7.3839     7.5416 C.3   463 CCL4   0.3246 
2361 CL      -5.4679    -6.5292     6.5774 Cl    463 CCL4  -0.0812 
2362 CL      -2.6225    -7.1863     6.7703 Cl    463 CCL4  -0.0812 
2363 CL      -4.1071    -6.7020     9.2001 Cl    463 CCL4  -0.0812 
2364 CL      -8.4687    -8.3644     6.0684 Cl    464 CCL4  -0.0812 
2365 C       -8.8000    -7.5959     4.4952 C.3   464 CCL4   0.3246 
2366 CL     -10.4391    -7.7966     3.9631 Cl    464 CCL4  -0.0812 
2367 CL      -7.7988    -8.2601     3.2421 Cl    464 CCL4  -0.0812 
2368 CL      -8.5748    -5.8686     4.6471 Cl    464 CCL4  -0.0812 
2369 CL       4.1053   -11.1265     2.7011 Cl    465 CCL4  -0.0812 
2370 C        2.4037   -11.0684     2.4157 C.3   465 CCL4   0.3246 
2371 CL       1.6977   -12.5317     2.8746 Cl    465 CCL4  -0.0812 
2372 CL       2.0679   -10.6179     0.6758 Cl    465 CCL4  -0.0812 
2373 CL       1.7489    -9.7001     3.4325 Cl    465 CCL4  -0.0812 
2374 CL       1.1992    -6.4477    16.9487 Cl    466 CCL4  -0.0812 
2375 C        1.8569    -7.6609    15.8237 C.3   466 CCL4   0.3246 
2376 CL       0.7145    -8.0730    14.5742 Cl    466 CCL4  -0.0812 
2377 CL       2.3512    -9.0760    16.6571 Cl    466 CCL4  -0.0812 
2378 CL       3.1966    -6.9505    14.9443 Cl    466 CCL4  -0.0812 
2379 CL       5.7207    -4.5804    15.4180 Cl    467 CCL4  -0.0812 
2380 C        5.2255    -4.7836    17.2224 C.3   467 CCL4   0.3246 
2381 CL       3.5481    -4.0851    17.5173 Cl    467 CCL4  -0.0812 
2382 CL       6.4520    -3.8381    18.2055 Cl    467 CCL4  -0.0812 
2383 CL       5.3205    -6.4863    17.7024 Cl    467 CCL4  -0.0812 
2384 CL      -3.3899    -4.3523    18.4559 Cl    468 CCL4  -0.0812 
2385 C       -3.7484    -6.1367    18.4713 C.3   468 CCL4   0.3246 
2386 CL      -4.8956    -6.7102    17.2922 Cl    468 CCL4  -0.0812 
2387 CL      -4.5120    -6.3704    20.1231 Cl    468 CCL4  -0.0812 
2388 CL      -2.2609    -7.1450    18.4141 Cl    468 CCL4  -0.0812 
2389 CL       2.9372     1.3310    17.9995 Cl    469 CCL4  -0.0812 
2390 C        3.0546    -0.4295    17.8501 C.3   469 CCL4   0.3246 
2391 CL       4.6640    -0.9434    18.2714 Cl    469 CCL4  -0.0812 
2392 CL       2.9741    -0.8822    16.1179 Cl    469 CCL4  -0.0812 
2393 CL       1.8953    -1.2072    18.8983 Cl    469 CCL4  -0.0812 
2394 CL      -8.3660    -7.2577    19.2518 Cl    470 CCL4  -0.0812 
2395 C       -8.4569    -6.3950    17.6946 C.3   470 CCL4   0.3246 
2396 CL      -7.6286    -4.7541    17.6906 Cl    470 CCL4  -0.0812 
2397 CL     -10.1840    -5.8800    17.5202 Cl    470 CCL4  -0.0812 
2398 CL      -7.8595    -7.3609    16.2939 Cl    470 CCL4  -0.0812 
2399 CL      -7.3252   -10.7392    18.0217 Cl    471 CCL4  -0.0812 
2400 C       -6.2414   -11.3372    16.7527 C.3   471 CCL4   0.3246 
2401 CL      -7.1878   -12.6688    16.0486 Cl    471 CCL4  -0.0812 
2402 CL      -4.9093   -12.1892    17.5660 Cl    471 CCL4  -0.0812 
2403 CL      -5.7337   -10.0859    15.5849 Cl    471 CCL4  -0.0812 
2404 CL       6.4362   -14.9519    10.4756 Cl    472 CCL4  -0.0812 
2405 C        5.8861   -16.3238    11.4333 C.3   472 CCL4   0.3246 
2406 CL       4.8996   -15.7721    12.7986 Cl    472 CCL4  -0.0812 
2407 CL       7.3158   -17.1236    12.0349 Cl    472 CCL4  -0.0812 
2408 CL       4.8492   -17.3927    10.3661 Cl    472 CCL4  -0.0812 
2409 CL      10.2765   -18.1791    10.4278 Cl    473 CCL4  -0.0812 
2410 C       10.9997   -16.5964    10.4656 C.3   473 CCL4   0.3246 
2411 CL      11.3321   -16.2299    12.2533 Cl    473 CCL4  -0.0812 
2412 CL       9.8621   -15.3312     9.9410 Cl    473 CCL4  -0.0812 
2413 CL      12.4840   -16.4018     9.5365 Cl    473 CCL4  -0.0812 
2414 CL       4.7488   -23.2623     3.3677 Cl    474 CCL4  -0.0812 
2415 C        5.6399   -21.7213     3.7111 C.3   474 CCL4   0.3246 
2416 CL       7.1568   -22.0894     4.6776 Cl    474 CCL4  -0.0812 
2417 CL       4.5531   -20.6306     4.6206 Cl    474 CCL4  -0.0812 
2418 CL       6.0782   -20.9430     2.1734 Cl    474 CCL4  -0.0812 
2419 CL       9.3781    -2.9471     2.1481 Cl    475 CCL4  -0.0812 
2420 C        9.9263    -1.3591     2.5481 C.3   475 CCL4   0.3246 
2421 CL      10.3032    -0.3951     1.1723 Cl    475 CCL4  -0.0812 
2422 CL      11.2474    -1.3997     3.6767 Cl    475 CCL4  -0.0812 
2423 CL       8.6244    -0.4639     3.3814 Cl    475 CCL4  -0.0812 
2424 CL       7.2355   -15.5122     6.6497 Cl    476 CCL4  -0.0812 
2425 C        8.1030   -16.9968     6.7048 C.3   476 CCL4   0.3246 
2426 CL       7.5840   -18.2349     5.4922 Cl    476 CCL4  -0.0812 
2427 CL       7.7480   -17.8026     8.3889 Cl    476 CCL4  -0.0812 
2428 CL       9.8985   -16.8404     6.6619 Cl    476 CCL4  -0.0812 
2429 CL       5.7515   -20.5986     8.6781 Cl    477 CCL4  -0.0812 
2430 C        6.1257   -21.4169    10.1931 C.3   477 CCL4   0.3246 
2431 CL       7.4218   -20.5998    11.0449 Cl    477 CCL4  -0.0812 
2432 CL       6.6655   -23.1078     9.8976 Cl    477 CCL4  -0.0812 
2433 CL       4.6414   -21.6214    11.2753 Cl    477 CCL4  -0.0812 
2434 CL       7.6157    -2.9466    12.3221 Cl    478 CCL4  -0.0812 
2435 C        9.2555    -2.5055    11.8225 C.3   478 CCL4   0.3246 
2436 CL      10.1916    -2.1423    13.1977 Cl    478 CCL4  -0.0812 
2437 CL       9.1791    -0.9807    10.9288 Cl    478 CCL4  -0.0812 
2438 CL       9.8638    -3.8444    10.8639 Cl    478 CCL4  -0.0812 
2439 CL       9.5736   -11.6909     3.7066 Cl    479 CCL4  -0.0812 
2440 C        7.8888   -11.3843     3.2630 C.3   479 CCL4   0.3246 
2441 CL       6.8608   -12.1982     4.4522 Cl    479 CCL4  -0.0812 
2442 CL       7.4727   -11.9820     1.6205 Cl    479 CCL4  -0.0812 
2443 CL       7.3559    -9.6918     3.3617 Cl    479 CCL4  -0.0812 
2444 CL       5.0043    -2.9775     6.3314 Cl    480 CCL4  -0.0812 
2445 C        6.6887    -2.7258     6.8004 C.3   480 CCL4   0.3246 
2446 CL       6.9884    -3.3463     8.4182 Cl    480 CCL4  -0.0812 
2447 CL       6.8180    -0.9018     6.8086 Cl    480 CCL4  -0.0812 
2448 CL       7.6859    -3.5379     5.4731 Cl    480 CCL4  -0.0812 
2449 CL       9.9778   -23.7517     6.9496 Cl    481 CCL4  -0.0812 
2450 C       10.0616   -22.2628     7.8875 C.3   481 CCL4   0.3246 
2451 CL      10.0638   -22.4624     9.5885 Cl    481 CCL4  -0.0812 
2452 CL       8.7765   -21.1500     7.4145 Cl    481 CCL4  -0.0812 
2453 CL      11.4814   -21.1996     7.3711 Cl    481 CCL4  -0.0812 
2454 CL       9.6677   -15.4173    15.8739 Cl    482 CCL4  -0.0812 
2455 C        8.4094   -14.3266    15.2272 C.3   482 CCL4   0.3246 
2456 CL       6.7031   -15.0305    15.7554 Cl    482 CCL4  -0.0812 
2457 CL       8.4298   -14.2547    13.4557 Cl    482 CCL4  -0.0812 
2458 CL       8.3381   -12.7211    16.0116 Cl    482 CCL4  -0.0812 
2459 CL       5.6816   -11.2038    14.2918 Cl    483 CCL4  -0.0812 
2460 C        5.0038   -10.8543    12.7284 C.3   483 CCL4   0.3246 
2461 CL       4.1854   -12.3516    12.2970 Cl    483 CCL4  -0.0812 
2462 CL       6.1381   -10.4428    11.3953 Cl    483 CCL4  -0.0812 
2463 CL       3.7637    -9.5711    12.7562 Cl    483 CCL4  -0.0812 
2464 CL       8.0331   -18.3745    16.7662 Cl    484 CCL4  -0.0812 
2465 C        9.5121   -19.0581    16.0768 C.3   484 CCL4   0.3246 
2466 CL       9.7267   -18.2954    14.4378 Cl    484 CCL4  -0.0812 
2467 CL       9.4076   -20.8097    15.9656 Cl    484 CCL4  -0.0812 
2468 CL      10.9238   -18.6704    17.0617 Cl    484 CCL4  -0.0812 
2469 CL       6.2518     1.8671    15.5732 Cl    485 CCL4  -0.0812 
2470 C        7.5220     0.6218    15.4226 C.3   485 CCL4   0.3246 
2471 CL       8.5038     0.6167    16.9207 Cl    485 CCL4  -0.0812 
2472 CL       8.3763     1.0073    13.8452 Cl    485 CCL4  -0.0812 
2473 CL       6.8056    -1.0141    15.3320 Cl    485 CCL4  -0.0812 
2474 CL       5.2622   -20.3621    20.7363 Cl    486 CCL4  -0.0812 
2475 C        6.3765   -20.9957    19.4340 C.3   486 CCL4   0.3246 
2476 CL       6.5831   -22.7283    19.6379 Cl    486 CCL4  -0.0812 
2477 CL       7.8219   -20.0930    19.7964 Cl    486 CCL4  -0.0812 
2478 CL       5.7205   -20.4961    17.8713 Cl    486 CCL4  -0.0812 
2479 CL       4.6602    -9.5177     5.8399 Cl    487 CCL4  -0.0812 
2480 C        4.2349    -7.7198     5.4686 C.3   487 CCL4   0.3246 
2481 CL       5.1446    -6.6031     6.4795 Cl    487 CCL4  -0.0812 
2482 CL       2.5005    -7.4990     5.8873 Cl    487 CCL4  -0.0812 
2483 CL       4.6311    -7.3648     3.8035 Cl    487 CCL4  -0.0812 
2484 CL       9.2821    -6.7089    13.7880 Cl    488 CCL4  -0.0812 
2485 C        8.2645    -7.9710    14.5797 C.3   488 CCL4   0.3246 
2486 CL       8.6144    -8.0658    16.3374 Cl    488 CCL4  -0.0812 
2487 CL       8.5801    -9.5713    13.8961 Cl    488 CCL4  -0.0812 
2488 CL       6.5005    -7.6687    14.2427 Cl    488 CCL4  -0.0812 
2489 CL       3.5520    -4.7604     9.1702 Cl    489 CCL4  -0.0812 
2490 C        3.9843    -6.0261    10.3129 C.3   489 CCL4   0.3246 
2491 CL       2.6825    -5.9980    11.4552 Cl    489 CCL4  -0.0812 
2492 CL       5.5559    -5.6636    11.2094 Cl    489 CCL4  -0.0812 
2493 CL       4.2435    -7.5430     9.5379 Cl    489 CCL4  -0.0812 
2494 CL       3.8534    -1.3398    10.3594 Cl    490 CCL4  -0.0812 
2495 C        3.4785    -1.1329    12.0418 C.3   490 CCL4   0.3246 
2496 CL       4.4220     0.2911    12.5558 Cl    490 CCL4  -0.0812 
2497 CL       3.9857    -2.5671    12.9172 Cl    490 CCL4  -0.0812 
2498 CL       1.7983    -0.8289    12.4194 Cl    490 CCL4  -0.0812 
2499 CL      -8.5612    14.5446   -15.6182 Cl    491 CCL4  -0.0812 
2500 C       -8.7954    16.1860   -14.9540 C.3   491 CCL4   0.3246 
2501 CL     -10.2902    16.8130   -15.6623 Cl    491 CCL4  -0.0812 
2502 CL      -7.3725    17.2426   -15.1765 Cl    491 CCL4  -0.0812 
2503 CL      -9.0071    15.9753   -13.1906 Cl    491 CCL4  -0.0812 
2504 CL       3.0957    12.5903   -18.7590 Cl    492 CCL4  -0.0812 
2505 C        3.5971    12.5902   -17.1386 C.3   492 CCL4   0.3246 
2506 CL       3.2606    11.0946   -16.3538 Cl    492 CCL4  -0.0812 
2507 CL       3.0389    13.9456   -16.2524 Cl    492 CCL4  -0.0812 
2508 CL       5.3891    12.7167   -17.1608 Cl    492 CCL4  -0.0812 
2509 CL       0.9804     3.4208   -12.9714 Cl    493 CCL4  -0.0812 
2510 C        0.3826     4.4387   -14.3665 C.3   493 CCL4   0.3246 
2511 CL      -0.8559     3.6599   -15.4491 Cl    493 CCL4  -0.0812 
2512 CL       1.7602     4.9994   -15.3656 Cl    493 CCL4  -0.0812 
2513 CL      -0.3482     5.9774   -13.6260 Cl    493 CCL4  -0.0812 
2514 CL      -4.7512    14.8969   -13.7245 Cl    494 CCL4  -0.0812 
2515 C       -4.4650    13.1419   -13.5973 C.3   494 CCL4   0.3246 
2516 CL      -4.7097    12.6267   -11.9066 Cl    494 CCL4  -0.0812 
2517 CL      -2.9258    12.5425   -14.1608 Cl    494 CCL4  -0.0812 
2518 CL      -5.7190    12.3287   -14.5652 Cl    494 CCL4  -0.0812 
2519 CL       2.3535     7.0490     1.2890 Cl    495 CCL4  -0.0812 
2520 C        0.6817     7.6463     1.1621 C.3   495 CCL4   0.3246 
2521 CL       0.3258     7.8983    -0.6316 Cl    495 CCL4  -0.0812 
2522 CL       0.3522     9.1698     2.0018 Cl    495 CCL4  -0.0812 
2523 CL      -0.5521     6.4233     1.5869 Cl    495 CCL4  -0.0812 
2524 CL       0.6946    11.9792   -13.8918 Cl    496 CCL4  -0.0812 
2525 C        0.1861    10.2519   -13.6757 C.3   496 CCL4   0.3246 
2526 CL       1.6131     9.3085   -13.2115 Cl    496 CCL4  -0.0812 
2527 CL      -0.4751     9.5692   -15.1281 Cl    496 CCL4  -0.0812 
2528 CL      -0.9096    10.1366   -12.2247 Cl    496 CCL4  -0.0812 
2529 CL      -4.4111     4.1016   -17.7884 Cl    497 CCL4  -0.0812 
2530 C       -6.1924     3.5757   -17.6391 C.3   497 CCL4   0.3246 
2531 CL      -6.2078     1.8826   -17.4328 Cl    497 CCL4  -0.0812 
2532 CL      -7.1617     4.0074   -19.1268 Cl    497 CCL4  -0.0812 
2533 CL      -6.8539     4.5055   -16.2162 Cl    497 CCL4  -0.0812 
2534 CL      -0.2218     4.0126    -9.8846 Cl    498 CCL4  -0.0812 
2535 C       -0.7227     2.3768    -9.5292 C.3   498 CCL4   0.3246 
2536 CL       0.5099     1.2463   -10.0724 Cl    498 CCL4  -0.0812 
2537 CL      -2.1601     1.9675   -10.4834 Cl    498 CCL4  -0.0812 
2538 CL      -1.0521     2.2139    -7.8428 Cl    498 CCL4  -0.0812 
2539 CL      -3.8989     4.7360   -13.9465 Cl    499 CCL4  -0.0812 
2540 C       -4.6428     5.2266   -12.3952 C.3   499 CCL4   0.3246 
2541 CL      -3.4189     5.7153   -11.3225 Cl    499 CCL4  -0.0812 
2542 CL      -5.5197     3.8130   -11.7793 Cl    499 CCL4  -0.0812 
2543 CL      -5.8334     6.5692   -12.7001 Cl    499 CCL4  -0.0812 
2544 CL       5.1514    10.1772    23.5964 Cl    500 CCL4  -0.0812 
2545 C        6.1522     8.8511    24.3501 C.3   500 CCL4   0.3246 
2546 CL       6.5694     7.7725    23.0064 Cl    500 CCL4  -0.0812 
2547 CL       5.2160     8.0544    25.5876 Cl    500 CCL4  -0.0812 
2548 CL       7.5798     9.5802    25.0935 Cl    500 CCL4  -0.0812 
2549 CL      -1.8511    12.1606     1.6898 Cl    501 CCL4  -0.0812 
2550 C       -2.1571    12.3107    -0.0155 C.3   501 CCL4   0.3246 
2551 CL      -1.0867    13.4790    -0.7985 Cl    501 CCL4  -0.0812 
2552 CL      -3.8275    12.7837    -0.3634 Cl    501 CCL4  -0.0812 
2553 CL      -1.9924    10.6886    -0.8316 Cl    501 CCL4  -0.0812 
2554 CL      -8.9525    13.7509     2.0785 Cl    502 CCL4  -0.0812 
2555 C       -8.2502    12.7531     0.7226 C.3   502 CCL4   0.3246 
2556 CL      -6.8665    11.9171     1.3969 Cl    502 CCL4  -0.0812 
2557 CL      -7.6953    13.9302    -0.4477 Cl    502 CCL4  -0.0812 
2558 CL      -9.3666    11.5853     0.1112 Cl    502 CCL4  -0.0812 
2559 CL       2.3256     9.4524   -19.6772 Cl    503 CCL4  -0.0812 
2560 C        2.0780     7.8816   -18.9114 C.3   503 CCL4   0.3246 
2561 CL       0.6993     7.9178   -17.8280 Cl    503 CCL4  -0.0812 
2562 CL       3.5351     7.3956   -17.9663 Cl    503 CCL4  -0.0812 
2563 CL       1.8553     6.6015   -20.1904 Cl    503 CCL4  -0.0812 
2564 CL      -4.4758     7.6775   -22.8584 Cl    504 CCL4  -0.0812 
2565 C       -4.0041     7.0842   -21.2479 C.3   504 CCL4   0.3246 
2566 CL      -5.1842     7.6668   -20.0888 Cl    504 CCL4  -0.0812 
2567 CL      -2.4671     7.8276   -20.7956 Cl    504 CCL4  -0.0812 
2568 CL      -3.7992     5.3321   -21.3223 Cl    504 CCL4  -0.0812 
2569 CL      -0.8772    14.0669   -19.6251 Cl    505 CCL4  -0.0812 
2570 C       -1.2632    12.6117   -18.5771 C.3   505 CCL4   0.3246 
2571 CL      -2.9668    12.6370   -17.9666 Cl    505 CCL4  -0.0812 
2572 CL      -0.1369    12.4672   -17.1785 Cl    505 CCL4  -0.0812 
2573 CL      -0.8800    11.2083   -19.6061 Cl    505 CCL4  -0.0812 
2574 CL      -8.0464    10.5922   -20.4383 Cl    506 CCL4  -0.0812 
2575 C       -6.8011    11.5259   -19.6023 C.3   506 CCL4   0.3246 
2576 CL      -6.9911    11.0707   -17.8050 Cl    506 CCL4  -0.0812 
2577 CL      -7.1751    13.3204   -19.4982 Cl    506 CCL4  -0.0812 
2578 CL      -5.2900    11.0197   -20.1922 Cl    506 CCL4  -0.0812 
2579 CL      -3.0261     6.9977   -16.7087 Cl    507 CCL4  -0.0812 
2580 C       -4.0402     8.2371   -15.9848 C.3   507 CCL4   0.3246 
2581 CL      -3.7109     9.7621   -16.8284 Cl    507 CCL4  -0.0812 
2582 CL      -3.4193     8.4810   -14.2667 Cl    507 CCL4  -0.0812 
2583 CL      -5.7157     7.7105   -16.0121 Cl    507 CCL4  -0.0812 
2584 CL      -4.4139     6.4693    -5.3244 Cl    508 CCL4  -0.0812 
2585 C       -3.9416     5.0033    -6.3142 C.3   508 CCL4   0.3246 
2586 CL      -5.4857     4.4866    -7.0670 Cl    508 CCL4  -0.0812 
2587 CL      -3.1641     3.6831    -5.3352 Cl    508 CCL4  -0.0812 
2588 CL      -2.8622     5.5883    -7.5714 Cl    508 CCL4  -0.0812 
2589 CL       1.6111     3.1124    -1.9867 Cl    509 CCL4  -0.0812 
2590 C        2.8772     1.8339    -1.6548 C.3   509 CCL4   0.3246 
2591 CL       4.0845     2.5397    -0.5723 Cl    509 CCL4  -0.0812 
2592 CL       3.5993     1.4186    -3.2316 Cl    509 CCL4  -0.0812 
2593 CL       2.1092     0.4215    -0.8568 Cl    509 CCL4  -0.0812 
2594 CL       2.5482    11.7694    -3.2381 Cl    510 CCL4  -0.0812 
2595 C        3.2922    11.0707    -1.8844 C.3   510 CCL4   0.3246 
2596 CL       2.2690    11.1040    -0.4348 Cl    510 CCL4  -0.0812 
2597 CL       4.6672    12.0907    -1.3780 Cl    510 CCL4  -0.0812 
2598 CL       3.8415     9.4414    -2.2157 Cl    510 CCL4  -0.0812 
2599 CL      -8.5637     3.6441    -3.0412 Cl    511 CCL4  -0.0812 
2600 C       -7.7967     2.0645    -3.4652 C.3   511 CCL4   0.3246 
2601 CL      -9.2044     1.0181    -3.8120 Cl    511 CCL4  -0.0812 
2602 CL      -6.9664     1.5803    -1.9843 Cl    511 CCL4  -0.0812 
2603 CL      -6.6368     1.9986    -4.7861 Cl    511 CCL4  -0.0812 
2604 CL       1.3454    10.0310    -9.1648 Cl    512 CCL4  -0.0812 
2605 C        2.2463    11.1037    -8.0911 C.3   512 CCL4   0.3246 
2606 CL       3.4062    12.1911    -8.8996 Cl    512 CCL4  -0.0812 
2607 CL       3.2183    10.0191    -6.8431 Cl    512 CCL4  -0.0812 
2608 CL       1.1403    12.0692    -7.1114 Cl    512 CCL4  -0.0812 
2609 CL       0.2681    13.3506   -10.3464 Cl    513 CCL4  -0.0812 
2610 C       -1.3059    13.6283    -9.4769 C.3   513 CCL4   0.3246 
2611 CL      -1.0326    14.5763    -8.0446 Cl    513 CCL4  -0.0812 
2612 CL      -2.0072    12.0110    -9.0314 Cl    513 CCL4  -0.0812 
2613 CL      -2.3357    14.5103   -10.5287 Cl    513 CCL4  -0.0812 
2614 CL       5.2768     5.5046   -10.7834 Cl    514 CCL4  -0.0812 
2615 C        3.7384     5.9290   -10.1949 C.3   514 CCL4   0.3246 
2616 CL       2.6565     6.2478   -11.6374 Cl    514 CCL4  -0.0812 
2617 CL       3.8281     7.3789    -9.2572 Cl    514 CCL4  -0.0812 
2618 CL       3.0036     4.6461    -9.2675 Cl    514 CCL4  -0.0812 
2619 CL       2.0936     6.8542    -4.3732 Cl    515 CCL4  -0.0812 
2620 C        1.0632     5.8727    -5.3352 C.3   515 CCL4   0.3246 
2621 CL       0.5846     6.7438    -6.8073 Cl    515 CCL4  -0.0812 
2622 CL      -0.3472     5.5159    -4.3654 Cl    515 CCL4  -0.0812 
2623 CL       1.8626     4.3896    -5.7490 Cl    515 CCL4  -0.0812 
2624 CL       6.6529    14.4433    -6.5143 Cl    516 CCL4  -0.0812 
2625 C        7.2502    13.2410    -5.4077 C.3   516 CCL4   0.3246 
2626 CL       6.4921    11.6714    -5.8119 Cl    516 CCL4  -0.0812 
2627 CL       6.7885    13.6481    -3.7051 Cl    516 CCL4  -0.0812 
2628 CL       9.0139    13.0312    -5.4208 Cl    516 CCL4  -0.0812 
2629 CL      -3.6383     9.7765    -3.5997 Cl    517 CCL4  -0.0812 
2630 C       -2.1534    10.0639    -4.5429 C.3   517 CCL4   0.3246 
2631 CL      -2.5243     9.7296    -6.2283 Cl    517 CCL4  -0.0812 
2632 CL      -0.9508     8.9970    -3.8932 Cl    517 CCL4  -0.0812 
2633 CL      -1.7273    11.8311    -4.4369 Cl    517 CCL4  -0.0812 
2634 CL      -5.3364     9.4990   -10.3248 Cl    518 CCL4  -0.0812 
2635 C       -6.4316     8.5367    -9.3898 C.3   518 CCL4   0.3246 
2636 CL      -8.1180     8.8293    -9.8553 Cl    518 CCL4  -0.0812 
2637 CL      -6.3550     9.0976    -7.7550 Cl    518 CCL4  -0.0812 
2638 CL      -6.0140     6.8239    -9.5001 Cl    518 CCL4  -0.0812 
2639 CL      -2.1431     4.1176    -1.9865 Cl    519 CCL4  -0.0812 
2640 C       -3.4251     5.2061    -1.3577 C.3   519 CCL4   0.3246 
2641 CL      -3.6521     4.6721     0.3525 Cl    519 CCL4  -0.0812 
2642 CL      -4.8728     5.0816    -2.3269 Cl    519 CCL4  -0.0812 
2643 CL      -2.9003     6.9092    -1.3835 Cl    519 CCL4  -0.0812 
2644 CL      -9.9260     5.5552     1.4816 Cl    520 CCL4  -0.0812 
2645 C       -8.2800     6.0074     1.6072 C.3   520 CCL4   0.3246 
2646 CL      -7.9760     7.7587     1.8294 Cl    520 CCL4  -0.0812 
2647 CL      -7.4350     5.4725     0.1312 Cl    520 CCL4  -0.0812 
2648 CL      -7.5247     5.0982     2.8545 Cl    520 CCL4  -0.0812 
2649 CL       0.3108    17.7129   -15.9126 Cl    521 CCL4  -0.0812 
2650 C       -0.3795    16.5828   -14.7162 C.3   521 CCL4   0.3246 
2651 CL      -1.5156    15.4874   -15.7151 Cl    521 CCL4  -0.0812 
2652 CL      -1.3323    17.6316   -13.5652 Cl    521 CCL4  -0.0812 
2653 CL       0.7893    15.5137   -13.9519 Cl    521 CCL4  -0.0812 
2654 CL      -4.2992    20.4584   -13.1152 Cl    522 CCL4  -0.0812 
2655 C       -5.4238    19.6674   -12.0188 C.3   522 CCL4   0.3246 
2656 CL      -5.0248    17.9860   -11.7626 Cl    522 CCL4  -0.0812 
2657 CL      -7.0680    19.7898   -12.7653 Cl    522 CCL4  -0.0812 
2658 CL      -5.4327    20.4272   -10.3944 Cl    522 CCL4  -0.0812 
2659 CL       0.4283    20.6906   -17.4778 Cl    523 CCL4  -0.0812 
2660 C       -0.5632    21.5208   -16.1988 C.3   523 CCL4   0.3246 
2661 CL      -0.4854    20.8428   -14.6013 Cl    523 CCL4  -0.0812 
2662 CL      -2.2891    21.6162   -16.5817 Cl    523 CCL4  -0.0812 
2663 CL       0.0468    23.2164   -16.1642 Cl    523 CCL4  -0.0812 
2664 CL      -4.4043    13.9460    25.4224 Cl    524 CCL4  -0.0812 
2665 C       -3.8920    15.3978    24.6607 C.3   524 CCL4   0.3246 
2666 CL      -4.0924    16.7413    25.7423 Cl    524 CCL4  -0.0812 
2667 CL      -4.7374    15.8078    23.1865 Cl    524 CCL4  -0.0812 
2668 CL      -2.1056    15.3629    24.3452 Cl    524 CCL4  -0.0812 
2669 CL      -3.9359    21.2132    26.1689 Cl    525 CCL4  -0.0812 
2670 C       -3.9904    20.6369    24.5247 C.3   525 CCL4   0.3246 
2671 CL      -3.8837    21.9468    23.3330 Cl    525 CCL4  -0.0812 
2672 CL      -5.5324    19.8864    24.3811 Cl    525 CCL4  -0.0812 
2673 CL      -2.5978    19.6051    24.1906 Cl    525 CCL4  -0.0812 
2674 CL      -4.6066    15.9035   -17.3634 Cl    526 CCL4  -0.0812 
2675 C       -4.3460    17.6161   -17.4584 C.3   526 CCL4   0.3246 
2676 CL      -5.4679    18.4708   -18.4226 Cl    526 CCL4  -0.0812 
2677 CL      -2.6225    17.8137   -18.2297 Cl    526 CCL4  -0.0812 
2678 CL      -4.1071    18.2980   -15.7999 Cl    526 CCL4  -0.0812 
2679 CL       4.1053    13.8735    24.7302 Cl    527 CCL4  -0.0812 
2680 C        2.4037    13.9316    24.4448 C.3   527 CCL4   0.3246 
2681 CL       1.6977    12.4683    24.9037 Cl    527 CCL4  -0.0812 
2682 CL       2.0679    14.3821    22.7049 Cl    527 CCL4  -0.0812 
2683 CL       1.7489    15.2999    25.4617 Cl    527 CCL4  -0.0812 
2684 CL       1.1992    18.5523    -8.0513 Cl    528 CCL4  -0.0812 
2685 C        1.8569    17.3391    -9.1763 C.3   528 CCL4   0.3246 
2686 CL       0.7145    16.9270   -10.4258 Cl    528 CCL4  -0.0812 
2687 CL       2.3512    15.9240    -8.3429 Cl    528 CCL4  -0.0812 
2688 CL       3.1966    18.0495   -10.0557 Cl    528 CCL4  -0.0812 
2689 CL       5.7207    20.4196    -9.5820 Cl    529 CCL4  -0.0812 
2690 C        5.2255    20.2164    -7.7776 C.3   529 CCL4   0.3246 
2691 CL       3.5481    20.9149    -7.4827 Cl    529 CCL4  -0.0812 
2692 CL       6.4520    21.1619    -6.7945 Cl    529 CCL4  -0.0812 
2693 CL       5.3205    18.5137    -7.2976 Cl    529 CCL4  -0.0812 
2694 CL      -3.2819    15.4356    -2.9701 Cl    530 CCL4  -0.0812 
2695 C       -4.8059    15.0260    -3.7494 C.3   530 CCL4   0.3246 
2696 CL      -6.1992    15.7708    -3.0269 Cl    530 CCL4  -0.0812 
2697 CL      -4.9643    13.2445    -3.7741 Cl    530 CCL4  -0.0812 
2698 CL      -4.7229    15.5260    -5.4099 Cl    530 CCL4  -0.0812 
2699 CL      -3.3899    20.6477    -6.5441 Cl    531 CCL4  -0.0812 
2700 C       -3.7484    18.8633    -6.5287 C.3   531 CCL4   0.3246 
2701 CL      -4.8956    18.2898    -7.7078 Cl    531 CCL4  -0.0812 
2702 CL      -4.5120    18.6296    -4.8769 Cl    531 CCL4  -0.0812 
2703 CL      -2.2609    17.8550    -6.5859 Cl    531 CCL4  -0.0812 
2704 CL      -1.4429    18.3126    -2.9939 Cl    532 CCL4  -0.0812 
2705 C       -1.8918    18.8022    -1.3463 C.3   532 CCL4   0.3246 
2706 CL      -1.2149    17.3868    -0.4120 Cl    532 CCL4  -0.0812 
2707 CL      -3.6700    18.8692    -1.1234 Cl    532 CCL4  -0.0812 
2708 CL      -1.2139    20.3638    -0.8996 Cl    532 CCL4  -0.0812 
2709 CL       2.8003    15.2376    -2.4272 Cl    533 CCL4  -0.0812 
2710 C        2.1665    15.3703    -4.0860 C.3   533 CCL4   0.3246 
2711 CL       3.1759    14.5569    -5.2726 Cl    533 CCL4  -0.0812 
2712 CL       1.9557    17.1674    -4.5409 Cl    533 CCL4  -0.0812 
2713 CL       0.6053    14.6196    -4.1864 Cl    533 CCL4  -0.0812 
2714 CL      -8.3660    17.7423    -5.7482 Cl    534 CCL4  -0.0812 
2715 C       -8.4569    18.6050    -7.3054 C.3   534 CCL4   0.3246 
2716 CL      -7.6286    20.2459    -7.3094 Cl    534 CCL4  -0.0812 
2717 CL     -10.1840    19.1200    -7.4798 Cl    534 CCL4  -0.0812 
2718 CL      -7.8595    17.6391    -8.7061 Cl    534 CCL4  -0.0812 
2719 CL      -7.3252    14.2608    -6.9783 Cl    535 CCL4  -0.0812 
2720 C       -6.2414    13.6628    -8.2473 C.3   535 CCL4   0.3246 
2721 CL      -7.1878    12.3312    -8.9514 Cl    535 CCL4  -0.0812 
2722 CL      -4.9093    12.8108    -7.4340 Cl    535 CCL4  -0.0812 
2723 CL      -5.7337    14.9141    -9.4151 Cl    535 CCL4  -0.0812 
2724 CL       5.9968    17.7399    -2.8487 Cl    536 CCL4  -0.0812 
2725 C        6.1080    17.5571    -1.1101 C.3   536 CCL4   0.3246 
2726 CL       7.7892    18.2373    -0.6772 Cl    536 CCL4  -0.0812 
2727 CL       6.0004    15.8012    -0.7180 Cl    536 CCL4  -0.0812 
2728 CL       4.9141    18.4927    -0.2304 Cl    536 CCL4  -0.0812 
2729 CL       6.4362    10.0481   -14.5244 Cl    537 CCL4  -0.0812 
2730 C        5.8861     8.6762   -13.5667 C.3   537 CCL4   0.3246 
2731 CL       4.8996     9.2279   -12.2014 Cl    537 CCL4  -0.0812 
2732 CL       7.3158     7.8764   -12.9651 Cl    537 CCL4  -0.0812 
2733 CL       4.8492     7.6073   -14.6339 Cl    537 CCL4  -0.0812 
2734 CL      10.2765     6.8209   -14.5722 Cl    538 CCL4  -0.0812 
2735 C       10.9997     8.4036   -14.5344 C.3   538 CCL4   0.3246 
2736 CL      11.3321     8.7701   -12.7467 Cl    538 CCL4  -0.0812 
2737 CL       9.8621     9.6688   -15.0590 Cl    538 CCL4  -0.0812 
2738 CL      12.4840     8.5982   -15.4635 Cl    538 CCL4  -0.0812 
2739 CL       4.7488     1.7377   -21.6323 Cl    539 CCL4  -0.0812 
2740 C        5.6399     3.2787   -21.2889 C.3   539 CCL4   0.3246 
2741 CL       7.1568     2.9106   -20.3224 Cl    539 CCL4  -0.0812 
2742 CL       4.5531     4.3694   -20.3794 Cl    539 CCL4  -0.0812 
2743 CL       6.0782     4.0570   -22.8266 Cl    539 CCL4  -0.0812 
2744 CL       7.2355     9.4878   -18.3503 Cl    540 CCL4  -0.0812 
2745 C        8.1030     8.0032   -18.2952 C.3   540 CCL4   0.3246 
2746 CL       7.5840     6.7651   -19.5078 Cl    540 CCL4  -0.0812 
2747 CL       7.7480     7.1974   -16.6111 Cl    540 CCL4  -0.0812 
2748 CL       9.8985     8.1596   -18.3381 Cl    540 CCL4  -0.0812 
2749 CL       5.7515     4.4014   -16.3219 Cl    541 CCL4  -0.0812 
2750 C        6.1257     3.5831   -14.8069 C.3   541 CCL4   0.3246 
2751 CL       7.4218     4.4002   -13.9551 Cl    541 CCL4  -0.0812 
2752 CL       6.6655     1.8922   -15.1024 Cl    541 CCL4  -0.0812 
2753 CL       4.6414     3.3786   -13.7247 Cl    541 CCL4  -0.0812 
2754 CL       9.5736    13.3091   -21.2934 Cl    542 CCL4  -0.0812 
2755 C        7.8888    13.6157   -21.7370 C.3   542 CCL4   0.3246 
2756 CL       6.8608    12.8018   -20.5478 Cl    542 CCL4  -0.0812 
2757 CL       7.4727    13.0180   -23.3795 Cl    542 CCL4  -0.0812 
2758 CL       7.3559    15.3082   -21.6383 Cl    542 CCL4  -0.0812 
2759 CL       9.9778     1.2483   -18.0504 Cl    543 CCL4  -0.0812 
2760 C       10.0616     2.7372   -17.1125 C.3   543 CCL4   0.3246 
2761 CL      10.0638     2.5376   -15.4115 Cl    543 CCL4  -0.0812 
2762 CL       8.7765     3.8500   -17.5855 Cl    543 CCL4  -0.0812 
2763 CL      11.4814     3.8004   -17.6289 Cl    543 CCL4  -0.0812 
2764 CL       9.6677     9.5827    -9.1261 Cl    544 CCL4  -0.0812 
2765 C        8.4094    10.6734    -9.7728 C.3   544 CCL4   0.3246 
2766 CL       6.7031     9.9695    -9.2446 Cl    544 CCL4  -0.0812 
2767 CL       8.4298    10.7453   -11.5443 Cl    544 CCL4  -0.0812 
2768 CL       8.3381    12.2789    -8.9884 Cl    544 CCL4  -0.0812 
2769 CL       5.6816    13.7962   -10.7082 Cl    545 CCL4  -0.0812 
2770 C        5.0038    14.1457   -12.2716 C.3   545 CCL4   0.3246 
2771 CL       4.1854    12.6484   -12.7030 Cl    545 CCL4  -0.0812 
2772 CL       6.1381    14.5572   -13.6047 Cl    545 CCL4  -0.0812 
2773 CL       3.7637    15.4289   -12.2438 Cl    545 CCL4  -0.0812 
2774 CL       8.0331     6.6255    -8.2338 Cl    546 CCL4  -0.0812 
2775 C        9.5121     5.9419    -8.9232 C.3   546 CCL4   0.3246 
2776 CL       9.7267     6.7046   -10.5622 Cl    546 CCL4  -0.0812 
2777 CL       9.4076     4.1903    -9.0344 Cl    546 CCL4  -0.0812 
2778 CL      10.9238     6.3296    -7.9383 Cl    546 CCL4  -0.0812 
2779 CL      -6.9867     8.1805    -4.0578 Cl    547 CCL4  -0.0812 
2780 C       -7.4149     9.1821    -2.6838 C.3   547 CCL4   0.3246 
2781 CL      -7.7868    10.8600    -3.1158 Cl    547 CCL4  -0.0812 
2782 CL      -8.9804     8.6116    -1.9791 Cl    547 CCL4  -0.0812 
2783 CL      -6.1721     9.0702    -1.4050 Cl    547 CCL4  -0.0812 
2784 CL       9.8629     8.4650    -0.9993 Cl    548 CCL4  -0.0812 
2785 C        8.8330     9.2404    -2.2544 C.3   548 CCL4   0.3246 
2786 CL       7.7827     8.0097    -2.9541 Cl    548 CCL4  -0.0812 
2787 CL       9.7876    10.0431    -3.5031 Cl    548 CCL4  -0.0812 
2788 CL       7.8022    10.4371    -1.3006 Cl    548 CCL4  -0.0812 
2789 CL       5.2622     4.6379    -4.2637 Cl    549 CCL4  -0.0812 
2790 C        6.3765     4.0043    -5.5660 C.3   549 CCL4   0.3246 
2791 CL       6.5831     2.2717    -5.3621 Cl    549 CCL4  -0.0812 
2792 CL       7.8219     4.9070    -5.2036 Cl    549 CCL4  -0.0812 
2793 CL       5.7205     4.5039    -7.1287 Cl    549 CCL4  -0.0812 
2794 CL       7.8183     4.7234    -0.8389 Cl    550 CCL4  -0.0812 
2795 C        8.4868     3.0659    -1.0942 C.3   550 CCL4   0.3246 
2796 CL      10.0594     3.1565    -1.8420 Cl    550 CCL4  -0.0812 
2797 CL       7.4287     2.1164    -2.1655 Cl    550 CCL4  -0.0812 
2798 CL       8.7550     2.3705     0.5644 Cl    550 CCL4  -0.0812 
2799 CL       4.6602    15.4823   -19.1601 Cl    551 CCL4  -0.0812 
2800 C        4.2349    17.2802   -19.5314 C.3   551 CCL4   0.3246 
2801 CL       5.1446    18.3969   -18.5205 Cl    551 CCL4  -0.0812 
2802 CL       2.5005    17.5010   -19.1127 Cl    551 CCL4  -0.0812 
2803 CL       4.6311    17.6352   -21.1965 Cl    551 CCL4  -0.0812 
2804 CL       9.2821    18.2911   -11.2120 Cl    552 CCL4  -0.0812 
2805 C        8.2645    17.0290   -10.4203 C.3   552 CCL4   0.3246 
2806 CL       8.6144    16.9342    -8.6626 Cl    552 CCL4  -0.0812 
2807 CL       8.5801    15.4287   -11.1039 Cl    552 CCL4  -0.0812 
2808 CL       6.5005    17.3313   -10.7573 Cl    552 CCL4  -0.0812 
2809 CL       3.5520    20.2396   -15.8298 Cl    553 CCL4  -0.0812 
2810 C        3.9843    18.9739   -14.6871 C.3   553 CCL4   0.3246 
2811 CL       2.6825    19.0020   -13.5448 Cl    553 CCL4  -0.0812 
2812 CL       5.5559    19.3364   -13.7906 Cl    553 CCL4  -0.0812 
2813 CL       4.2435    17.4570   -15.4621 Cl    553 CCL4  -0.0812 
2814 CL      -8.5612    14.5446     9.3818 Cl    554 CCL4  -0.0812 
2815 C       -8.7954    16.1860    10.0460 C.3   554 CCL4   0.3246 
2816 CL     -10.2902    16.8130     9.3377 Cl    554 CCL4  -0.0812 
2817 CL      -7.3725    17.2426     9.8235 Cl    554 CCL4  -0.0812 
2818 CL      -9.0071    15.9753    11.8094 Cl    554 CCL4  -0.0812 
2819 CL       3.0957    12.5903     6.2410 Cl    555 CCL4  -0.0812 
2820 C        3.5971    12.5902     7.8614 C.3   555 CCL4   0.3246 
2821 CL       3.2606    11.0946     8.6462 Cl    555 CCL4  -0.0812 
2822 CL       3.0389    13.9456     8.7476 Cl    555 CCL4  -0.0812 
2823 CL       5.3891    12.7167     7.8392 Cl    555 CCL4  -0.0812 
2824 CL       0.9804     3.4208    12.0286 Cl    556 CCL4  -0.0812 
2825 C        0.3826     4.4387    10.6335 C.3   556 CCL4   0.3246 
2826 CL      -0.8559     3.6599     9.5509 Cl    556 CCL4  -0.0812 
2827 CL       1.7602     4.9994     9.6344 Cl    556 CCL4  -0.0812 
2828 CL      -0.3482     5.9774    11.3740 Cl    556 CCL4  -0.0812 
2829 CL      -4.7512    14.8969    11.2755 Cl    557 CCL4  -0.0812 
2830 C       -4.4650    13.1419    11.4027 C.3   557 CCL4   0.3246 
2831 CL      -4.7097    12.6267    13.0934 Cl    557 CCL4  -0.0812 
2832 CL      -2.9258    12.5425    10.8392 Cl    557 CCL4  -0.0812 
2833 CL      -5.7190    12.3287    10.4348 Cl    557 CCL4  -0.0812 
2834 CL       0.6946    11.9792    11.1082 Cl    558 CCL4  -0.0812 
2835 C        0.1861    10.2519    11.3243 C.3   558 CCL4   0.3246 
2836 CL       1.6131     9.3085    11.7885 Cl    558 CCL4  -0.0812 
2837 CL      -0.4751     9.5692     9.8719 Cl    558 CCL4  -0.0812 
2838 CL      -0.9096    10.1366    12.7753 Cl    558 CCL4  -0.0812 
2839 CL      -4.4111     4.1016     7.2116 Cl    559 CCL4  -0.0812 
2840 C       -6.1924     3.5757     7.3609 C.3   559 CCL4   0.3246 
2841 CL      -6.2078     1.8826     7.5672 Cl    559 CCL4  -0.0812 
2842 CL      -7.1617     4.0074     5.8732 Cl    559 CCL4  -0.0812 
2843 CL      -6.8539     4.5055     8.7838 Cl    559 CCL4  -0.0812 
2844 CL      -0.2218     4.0126    15.1154 Cl    560 CCL4  -0.0812 
2845 C       -0.7227     2.3768    15.4708 C.3   560 CCL4   0.3246 
2846 CL       0.5099     1.2463    14.9276 Cl    560 CCL4  -0.0812 
2847 CL      -2.1601     1.9675    14.5166 Cl    560 CCL4  -0.0812 
2848 CL      -1.0521     2.2139    17.1572 Cl    560 CCL4  -0.0812 
2849 CL      -3.8989     4.7360    11.0535 Cl    561 CCL4  -0.0812 
2850 C       -4.6428     5.2266    12.6048 C.3   561 CCL4   0.3246 
2851 CL      -3.4189     5.7153    13.6775 Cl    561 CCL4  -0.0812 
2852 CL      -5.5197     3.8130    13.2207 Cl    561 CCL4  -0.0812 
2853 CL      -5.8334     6.5692    12.2999 Cl    561 CCL4  -0.0812 
2854 CL       5.1514    10.1772     1.5672 Cl    562 CCL4  -0.0812 
2855 C        6.1522     8.8511     2.3210 C.3   562 CCL4   0.3246 
2856 CL       6.5694     7.7725     0.9772 Cl    562 CCL4  -0.0812 
2857 CL       5.2160     8.0544     3.5585 Cl    562 CCL4  -0.0812 
2858 CL       7.5798     9.5802     3.0643 Cl    562 CCL4  -0.0812 
2859 CL       2.3256     9.4524     5.3228 Cl    563 CCL4  -0.0812 
2860 C        2.0780     7.8816     6.0886 C.3   563 CCL4   0.3246 
2861 CL       0.6993     7.9178     7.1720 Cl    563 CCL4  -0.0812 
2862 CL       3.5351     7.3956     7.0337 Cl    563 CCL4  -0.0812 
2863 CL       1.8553     6.6015     4.8096 Cl    563 CCL4  -0.0812 
2864 CL      -4.4758     7.6775     2.1416 Cl    564 CCL4  -0.0812 
2865 C       -4.0041     7.0842     3.7521 C.3   564 CCL4   0.3246 
2866 CL      -5.1842     7.6668     4.9112 Cl    564 CCL4  -0.0812 
2867 CL      -2.4671     7.8276     4.2044 Cl    564 CCL4  -0.0812 
2868 CL      -3.7992     5.3321     3.6777 Cl    564 CCL4  -0.0812 
2869 CL      -0.8772    14.0669     5.3749 Cl    565 CCL4  -0.0812 
2870 C       -1.2632    12.6117     6.4229 C.3   565 CCL4   0.3246 
2871 CL      -2.9668    12.6370     7.0334 Cl    565 CCL4  -0.0812 
2872 CL      -0.1369    12.4672     7.8215 Cl    565 CCL4  -0.0812 
2873 CL      -0.8800    11.2083     5.3939 Cl    565 CCL4  -0.0812 
2874 CL      -8.0464    10.5922     4.5617 Cl    566 CCL4  -0.0812 
2875 C       -6.8011    11.5259     5.3977 C.3   566 CCL4   0.3246 
2876 CL      -6.9911    11.0707     7.1950 Cl    566 CCL4  -0.0812 
2877 CL      -7.1751    13.3204     5.5018 Cl    566 CCL4  -0.0812 
2878 CL      -5.2900    11.0197     4.8078 Cl    566 CCL4  -0.0812 
2879 CL      -3.0261     6.9977     8.2913 Cl    567 CCL4  -0.0812 
2880 C       -4.0402     8.2371     9.0152 C.3   567 CCL4   0.3246 
2881 CL      -3.7109     9.7621     8.1716 Cl    567 CCL4  -0.0812 
2882 CL      -3.4193     8.4810    10.7333 Cl    567 CCL4  -0.0812 
2883 CL      -5.7157     7.7105     8.9879 Cl    567 CCL4  -0.0812 
2884 CL      -4.4139     6.4693    19.6756 Cl    568 CCL4  -0.0812 
2885 C       -3.9416     5.0033    18.6858 C.3   568 CCL4   0.3246 
2886 CL      -5.4857     4.4866    17.9330 Cl    568 CCL4  -0.0812 
2887 CL      -3.1641     3.6831    19.6648 Cl    568 CCL4  -0.0812 
2888 CL      -2.8622     5.5883    17.4286 Cl    568 CCL4  -0.0812 
2889 CL       1.3454    10.0310    15.8352 Cl    569 CCL4  -0.0812 
2890 C        2.2463    11.1037    16.9089 C.3   569 CCL4   0.3246 
2891 CL       3.4062    12.1911    16.1004 Cl    569 CCL4  -0.0812 
2892 CL       3.2183    10.0191    18.1569 Cl    569 CCL4  -0.0812 
2893 CL       1.1403    12.0692    17.8886 Cl    569 CCL4  -0.0812 
2894 CL       0.2681    13.3506    14.6536 Cl    570 CCL4  -0.0812 
2895 C       -1.3059    13.6283    15.5231 C.3   570 CCL4   0.3246 
2896 CL      -1.0326    14.5763    16.9554 Cl    570 CCL4  -0.0812 
2897 CL      -2.0072    12.0110    15.9686 Cl    570 CCL4  -0.0812 
2898 CL      -2.3357    14.5103    14.4713 Cl    570 CCL4  -0.0812 
2899 CL       5.2768     5.5046    14.2166 Cl    571 CCL4  -0.0812 
2900 C        3.7384     5.9290    14.8051 C.3   571 CCL4   0.3246 
2901 CL       2.6565     6.2478    13.3626 Cl    571 CCL4  -0.0812 
2902 CL       3.8281     7.3789    15.7428 Cl    571 CCL4  -0.0812 
2903 CL       3.0036     4.6461    15.7325 Cl    571 CCL4  -0.0812 
2904 CL       2.0936     6.8542    20.6268 Cl    572 CCL4  -0.0812 
2905 C        1.0632     5.8727    19.6648 C.3   572 CCL4   0.3246 
2906 CL       0.5846     6.7438    18.1927 Cl    572 CCL4  -0.0812 
2907 CL      -0.3472     5.5159    20.6346 Cl    572 CCL4  -0.0812 
2908 CL       1.8626     4.3896    19.2510 Cl    572 CCL4  -0.0812 
2909 CL       6.6529    14.4433    18.4857 Cl    573 CCL4  -0.0812 
2910 C        7.2502    13.2410    19.5923 C.3   573 CCL4   0.3246 
2911 CL       6.4921    11.6714    19.1881 Cl    573 CCL4  -0.0812 
2912 CL       6.7885    13.6481    21.2949 Cl    573 CCL4  -0.0812 
2913 CL       9.0139    13.0312    19.5792 Cl    573 CCL4  -0.0812 
2914 CL      -3.6383     9.7765    21.4003 Cl    574 CCL4  -0.0812 
2915 C       -2.1534    10.0639    20.4571 C.3   574 CCL4   0.3246 
2916 CL      -2.5243     9.7296    18.7717 Cl    574 CCL4  -0.0812 
2917 CL      -0.9508     8.9970    21.1068 Cl    574 CCL4  -0.0812 
2918 CL      -1.7273    11.8311    20.5631 Cl    574 CCL4  -0.0812 
2919 CL      -5.3364     9.4990    14.6752 Cl    575 CCL4  -0.0812 
2920 C       -6.4316     8.5367    15.6102 C.3   575 CCL4   0.3246 
2921 CL      -8.1180     8.8293    15.1447 Cl    575 CCL4  -0.0812 
2922 CL      -6.3550     9.0976    17.2450 Cl    575 CCL4  -0.0812 
2923 CL      -6.0140     6.8239    15.4999 Cl    575 CCL4  -0.0812 
2924 CL       0.3108    17.7129     9.0874 Cl    576 CCL4  -0.0812 
2925 C       -0.3795    16.5828    10.2838 C.3   576 CCL4   0.3246 
2926 CL      -1.5156    15.4874     9.2849 Cl    576 CCL4  -0.0812 
2927 CL      -1.3323    17.6316    11.4348 Cl    576 CCL4  -0.0812 
2928 CL       0.7893    15.5137    11.0481 Cl    576 CCL4  -0.0812 
2929 CL      -4.2992    20.4584    11.8848 Cl    577 CCL4  -0.0812 
2930 C       -5.4238    19.6674    12.9812 C.3   577 CCL4   0.3246 
2931 CL      -5.0248    17.9860    13.2374 Cl    577 CCL4  -0.0812 
2932 CL      -7.0680    19.7898    12.2347 Cl    577 CCL4  -0.0812 
2933 CL      -5.4327    20.4272    14.6056 Cl    577 CCL4  -0.0812 
2934 CL       0.4283    20.6906     7.5222 Cl    578 CCL4  -0.0812 
2935 C       -0.5632    21.5208     8.8012 C.3   578 CCL4   0.3246 
2936 CL      -0.4854    20.8428    10.3987 Cl    578 CCL4  -0.0812 
2937 CL      -2.2891    21.6162     8.4183 Cl    578 CCL4  -0.0812 
2938 CL       0.0468    23.2164     8.8358 Cl    578 CCL4  -0.0812 
2939 CL      -4.4043    13.9460     3.3933 Cl    579 CCL4  -0.0812 
2940 C       -3.8920    15.3978     2.6315 C.3   579 CCL4   0.3246 
2941 CL      -4.0924    16.7413     3.7131 Cl    579 CCL4  -0.0812 
2942 CL      -4.7374    15.8078     1.1573 Cl    579 CCL4  -0.0812 
2943 CL      -2.1056    15.3629     2.3160 Cl    579 CCL4  -0.0812 
2944 CL      -3.9359    21.2132     4.1397 Cl    580 CCL4  -0.0812 
2945 C       -3.9904    20.6369     2.4956 C.3   580 CCL4   0.3246 
2946 CL      -3.8837    21.9468     1.3038 Cl    580 CCL4  -0.0812 
2947 CL      -5.5324    19.8864     2.3520 Cl    580 CCL4  -0.0812 
2948 CL      -2.5978    19.6051     2.1615 Cl    580 CCL4  -0.0812 
2949 CL      -4.6066    15.9035     7.6366 Cl    581 CCL4  -0.0812 
2950 C       -4.3460    17.6161     7.5416 C.3   581 CCL4   0.3246 
2951 CL      -5.4679    18.4708     6.5774 Cl    581 CCL4  -0.0812 
2952 CL      -2.6225    17.8137     6.7703 Cl    581 CCL4  -0.0812 
2953 CL      -4.1071    18.2980     9.2001 Cl    581 CCL4  -0.0812 
2954 CL      -8.4687    16.6356     6.0684 Cl    582 CCL4  -0.0812 
2955 C       -8.8000    17.4041     4.4952 C.3   582 CCL4   0.3246 
2956 CL     -10.4391    17.2034     3.9631 Cl    582 CCL4  -0.0812 
2957 CL      -7.7988    16.7399     3.2421 Cl    582 CCL4  -0.0812 
2958 CL      -8.5748    19.1314     4.6471 Cl    582 CCL4  -0.0812 
2959 CL       4.1053    13.8735     2.7011 Cl    583 CCL4  -0.0812 
2960 C        2.4037    13.9316     2.4157 C.3   583 CCL4   0.3246 
2961 CL       1.6977    12.4683     2.8746 Cl    583 CCL4  -0.0812 
2962 CL       2.0679    14.3821     0.6758 Cl    583 CCL4  -0.0812 
2963 CL       1.7489    15.2999     3.4325 Cl    583 CCL4  -0.0812 
2964 CL       1.1992    18.5523    16.9487 Cl    584 CCL4  -0.0812 
2965 C        1.8569    17.3391    15.8237 C.3   584 CCL4   0.3246 
2966 CL       0.7145    16.9270    14.5742 Cl    584 CCL4  -0.0812 
2967 CL       2.3512    15.9240    16.6571 Cl    584 CCL4  -0.0812 
2968 CL       3.1966    18.0495    14.9443 Cl    584 CCL4  -0.0812 
2969 CL       5.7207    20.4196    15.4180 Cl    585 CCL4  -0.0812 
2970 C        5.2255    20.2164    17.2224 C.3   585 CCL4   0.3246 
2971 CL       3.5481    20.9149    17.5173 Cl    585 CCL4  -0.0812 
2972 CL       6.4520    21.1619    18.2055 Cl    585 CCL4  -0.0812 
2973 CL       5.3205    18.5137    17.7024 Cl    585 CCL4  -0.0812 
2974 CL      -3.3899    20.6477    18.4559 Cl    586 CCL4  -0.0812 
2975 C       -3.7484    18.8633    18.4713 C.3   586 CCL4   0.3246 
2976 CL      -4.8956    18.2898    17.2922 Cl    586 CCL4  -0.0812 
2977 CL      -4.5120    18.6296    20.1231 Cl    586 CCL4  -0.0812 
2978 CL      -2.2609    17.8550    18.4141 Cl    586 CCL4  -0.0812 
2979 CL      -8.3660    17.7423    19.2518 Cl    587 CCL4  -0.0812 
2980 C       -8.4569    18.6050    17.6946 C.3   587 CCL4   0.3246 
2981 CL      -7.6286    20.2459    17.6906 Cl    587 CCL4  -0.0812 
2982 CL     -10.1840    19.1200    17.5202 Cl    587 CCL4  -0.0812 
2983 CL      -7.8595    17.6391    16.2939 Cl    587 CCL4  -0.0812 
2984 CL      -7.3252    14.2608    18.0217 Cl    588 CCL4  -0.0812 
2985 C       -6.2414    13.6628    16.7527 C.3   588 CCL4   0.3246 
2986 CL      -7.1878    12.3312    16.0486 Cl    588 CCL4  -0.0812 
2987 CL      -4.9093    12.8108    17.5660 Cl    588 CCL4  -0.0812 
2988 CL      -5.7337    14.9141    15.5849 Cl    588 CCL4  -0.0812 
2989 CL       6.4362    10.0481    10.4756 Cl    589 CCL4  -0.0812 
2990 C        5.8861     8.6762    11.4333 C.3   589 CCL4   0.3246 
2991 CL       4.8996     9.2279    12.7986 Cl    589 CCL4  -0.0812 
2992 CL       7.3158     7.8764    12.0349 Cl    589 CCL4  -0.0812 
2993 CL       4.8492     7.6073    10.3661 Cl    589 CCL4  -0.0812 
2994 CL      10.2765     6.8209    10.4278 Cl    590 CCL4  -0.0812 
2995 C       10.9997     8.4036    10.4656 C.3   590 CCL4   0.3246 
2996 CL      11.3321     8.7701    12.2533 Cl    590 CCL4  -0.0812 
2997 CL       9.8621     9.6688     9.9410 Cl    590 CCL4  -0.0812 
2998 CL      12.4840     8.5982     9.5365 Cl    590 CCL4  -0.0812 
2999 CL       4.7488     1.7377     3.3677 Cl    591 CCL4  -0.0812 
3000 C        5.6399     3.2787     3.7111 C.3   591 CCL4   0.3246 
3001 CL       7.1568     2.9106     4.6776 Cl    591 CCL4  -0.0812 
3002 CL       4.5531     4.3694     4.6206 Cl    591 CCL4  -0.0812 
3003 CL       6.0782     4.0570     2.1734 Cl    591 CCL4  -0.0812 
3004 CL       7.2355     9.4878     6.6497 Cl    592 CCL4  -0.0812 
3005 C        8.1030     8.0032     6.7048 C.3   592 CCL4   0.3246 
3006 CL       7.5840     6.7651     5.4922 Cl    592 CCL4  -0.0812 
3007 CL       7.7480     7.1974     8.3889 Cl    592 CCL4  -0.0812 
3008 CL       9.8985     8.1596     6.6619 Cl    592 CCL4  -0.0812 
3009 CL       5.7515     4.4014     8.6781 Cl    593 CCL4  -0.0812 
3010 C        6.1257     3.5831    10.1931 C.3   593 CCL4   0.3246 
3011 CL       7.4218     4.4002    11.0449 Cl    593 CCL4  -0.0812 
3012 CL       6.6655     1.8922     9.8976 Cl    593 CCL4  -0.0812 
3013 CL       4.6414     3.3786    11.2753 Cl    593 CCL4  -0.0812 
3014 CL       9.5736    13.3091     3.7066 Cl    594 CCL4  -0.0812 
3015 C        7.8888    13.6157     3.2630 C.3   594 CCL4   0.3246 
3016 CL       6.8608    12.8018     4.4522 Cl    594 CCL4  -0.0812 
3017 CL       7.4727    13.0180     1.6205 Cl    594 CCL4  -0.0812 
3018 CL       7.3559    15.3082     3.3617 Cl    594 CCL4  -0.0812 
3019 CL       9.9778     1.2483     6.9496 Cl    595 CCL4  -0.0812 
3020 C       10.0616     2.7372     7.8875 C.3   595 CCL4   0.3246 
3021 CL      10.0638     2.5376     9.5885 Cl    595 CCL4  -0.0812 
3022 CL       8.7765     3.8500     7.4145 Cl    595 CCL4  -0.0812 
3023 CL      11.4814     3.8004     7.3711 Cl    595 CCL4  -0.0812 
3024 CL       9.6677     9.5827    15.8739 Cl    596 CCL4  -0.0812 
3025 C        8.4094    10.6734    15.2272 C.3   596 CCL4   0.3246 
3026 CL       6.7031     9.9695    15.7554 Cl    596 CCL4  -0.0812 
3027 CL       8.4298    10.7453    13.4557 Cl    596 CCL4  -0.0812 
3028 CL       8.3381    12.2789    16.0116 Cl    596 CCL4  -0.0812 
3029 CL       5.6816    13.7962    14.2918 Cl    597 CCL4  -0.0812 
3030 C        5.0038    14.1457    12.7284 C.3   597 CCL4   0.3246 
3031 CL       4.1854    12.6484    12.2970 Cl    597 CCL4  -0.0812 
3032 CL       6.1381    14.5572    11.3953 Cl    597 CCL4  -0.0812 
3033 CL       3.7637    15.4289    12.7562 Cl    597 CCL4  -0.0812 
3034 CL       8.0331     6.6255    16.7662 Cl    598 CCL4  -0.0812 
3035 C        9.5121     5.9419    16.0768 C.3   598 CCL4   0.3246 
3036 CL       9.7267     6.7046    14.4378 Cl    598 CCL4  -0.0812 
3037 CL       9.4076     4.1903    15.9656 Cl    598 CCL4  -0.0812 
3038 CL      10.9238     6.3296    17.0617 Cl    598 CCL4  -0.0812 
3039 CL       5.2622     4.6379    20.7363 Cl    599 CCL4  -0.0812 
3040 C        6.3765     4.0043    19.4340 C.3   599 CCL4   0.3246 
3041 CL       6.5831     2.2717    19.6379 Cl    599 CCL4  -0.0812 
3042 CL       7.8219     4.9070    19.7964 Cl    599 CCL4  -0.0812 
3043 CL       5.7205     4.5039    17.8713 Cl    599 CCL4  -0.0812 
3044 CL       4.6602    15.4823     5.8399 Cl    600 CCL4  -0.0812 
3045 C        4.2349    17.2802     5.4686 C.3   600 CCL4   0.3246 
3046 CL       5.1446    18.3969     6.4795 Cl    600 CCL4  -0.0812 
3047 CL       2.5005    17.5010     5.8873 Cl    600 CCL4  -0.0812 
3048 CL       4.6311    17.6352     3.8035 Cl    600 CCL4  -0.0812 
3049 CL       9.2821    18.2911    13.7880 Cl    601 CCL4  -0.0812 
3050 C        8.2645    17.0290    14.5797 C.3   601 CCL4   0.3246 
3051 CL       8.6144    16.9342    16.3374 Cl    601 CCL4  -0.0812 
3052 CL       8.5801    15.4287    13.8961 Cl    601 CCL4  -0.0812 
3053 CL       6.5005    17.3313    14.2427 Cl    601 CCL4  -0.0812 
3054 CL       3.5520    20.2396     9.1702 Cl    602 CCL4  -0.0812 
3055 C        3.9843    18.9739    10.3129 C.3   602 CCL4   0.3246 
3056 CL       2.6825    19.0020    11.4552 Cl    602 CCL4  -0.0812 
3057 CL       5.5559    19.3364    11.2094 Cl    602 CCL4  -0.0812 
3058 CL       4.2435    17.4570     9.5379 Cl    602 CCL4  -0.0812 
@<TRIPOS>BOND
   1    1    2  1   
   2    1   52  ar  
   3    1   53  ar  
   4    2    3  1   
   5    2    4  1   
   6    2    5  1   
   7    5    6  1   
   8    5    7  1   
   9    5   51  1   
  10    7    8  1   
  11    7    9  1   
  12    7   10  1   
  13   10   11  1   
  14   10   49  1   
  15   10   50  1   
  16   11   12  1   
  17   11   13  1   
  18   11   48  1   
  19   13   14  1   
  20   13   15  1   
  21   13   16  1   
  22   16   17  1   
  23   16   18  1   
  24   16   47  1   
  25   18   19  1   
  26   18   20  2   
  27   20   21  1   
  28   20   22  1   
  29   22   23  1   
  30   22   45  1   
  31   22   46  1   
  32   23   24  1   
  33   23   25  1   
  34   23   44  1   
  35   25   26  1   
  36   25   27  1   
  37   25   28  1   
  38   28   29  1   
  39   28   30  1   
  40   28   43  1   
  41   30   31  1   
  42   30   32  1   
  43   30   33  1   
  44   33   34  1   
  45   33   35  1   
  46   33   42  1   
  47   35   36  1   
  48   35   37  1   
  49   35   38  1   
  50   38   39  1   
  51   38   40  1   
  52   38   41  1   
  53   54   55  1   
  54   55   56  1   
  55   55   57  1   
  56   55   58  1   
  57   59   60  1   
  58   60   61  1   
  59   60   62  1   
  60   60   63  1   
  61   64   65  1   
  62   65   66  1   
  63   65   67  1   
  64   65   68  1   
  65   69   70  1   
  66   70   71  1   
  67   70   72  1   
  68   70   73  1   
  69   74   75  1   
  70   75   76  1   
  71   75   77  1   
  72   75   78  1   
  73   79   80  1   
  74   80   81  1   
  75   80   82  1   
  76   80   83  1   
  77   84   85  1   
  78   85   86  1   
  79   85   87  1   
  80   85   88  1   
  81   89   90  1   
  82   90   91  1   
  83   90   92  1   
  84   90   93  1   
  85   94   95  1   
  86   95   96  1   
  87   95   97  1   
  88   95   98  1   
  89   99  100  1   
  90  100  101  1   
  91  100  102  1   
  92  100  103  1   
  93  104  105  1   
  94  105  106  1   
  95  105  107  1   
  96  105  108  1   
  97  109  110  1   
  98  110  111  1   
  99  110  112  1   
 100  110  113  1   
 101  114  115  1   
 102  115  116  1   
 103  115  117  1   
 104  115  118  1   
 105  119  120  1   
 106  120  121  1   
 107  120  122  1   
 108  120  123  1   
 109  124  125  1   
 110  125  126  1   
 111  125  127  1   
 112  125  128  1   
 113  129  130  1   
 114  130  131  1   
 115  130  132  1   
 116  130  133  1   
 117  134  135  1   
 118  135  136  1   
 119  135  137  1   
 120  135  138  1   
 121  139  140  1   
 122  140  141  1   
 123  140  142  1   
 124  140  143  1   
 125  144  145  1   
 126  145  146  1   
 127  145  147  1   
 128  145  148  1   
 129  149  150  1   
 130  150  151  1   
 131  150  152  1   
 132  150  153  1   
 133  154  155  1   
 134  155  156  1   
 135  155  157  1   
 136  155  158  1   
 137  159  160  1   
 138  160  161  1   
 139  160  162  1   
 140  160  163  1   
 141  164  165  1   
 142  165  166  1   
 143  165  167  1   
 144  165  168  1   
 145  169  170  1   
 146  170  171  1   
 147  170  172  1   
 148  170  173  1   
 149  174  175  1   
 150  175  176  1   
 151  175  177  1   
 152  175  178  1   
 153  179  180  1   
 154  180  181  1   
 155  180  182  1   
 156  180  183  1   
 157  184  185  1   
 158  185  186  1   
 159  185  187  1   
 160  185  188  1   
 161  189  190  1   
 162  190  191  1   
 163  190  192  1   
 164  190  193  1   
 165  194  195  1   
 166  195  196  1   
 167  195  197  1   
 168  195  198  1   
 169  199  200  1   
 170  200  201  1   
 171  200  202  1   
 172  200  203  1   
 173  204  205  1   
 174  205  206  1   
 175  205  207  1   
 176  205  208  1   
 177  209  210  1   
 178  210  211  1   
 179  210  212  1   
 180  210  213  1   
 181  214  215  1   
 182  215  216  1   
 183  215  217  1   
 184  215  218  1   
 185  219  220  1   
 186  220  221  1   
 187  220  222  1   
 188  220  223  1   
 189  224  225  1   
 190  225  226  1   
 191  225  227  1   
 192  225  228  1   
 193  229  230  1   
 194  230  231  1   
 195  230  232  1   
 196  230  233  1   
 197  234  235  1   
 198  235  236  1   
 199  235  237  1   
 200  235  238  1   
 201  239  240  1   
 202  240  241  1   
 203  240  242  1   
 204  240  243  1   
 205  244  245  1   
 206  245  246  1   
 207  245  247  1   
 208  245  248  1   
 209  249  250  1   
 210  250  251  1   
 211  250  252  1   
 212  250  253  1   
 213  254  255  1   
 214  255  256  1   
 215  255  257  1   
 216  255  258  1   
 217  259  260  1   
 218  260  261  1   
 219  260  262  1   
 220  260  263  1   
 221  264  265  1   
 222  265  266  1   
 223  265  267  1   
 224  265  268  1   
 225  269  270  1   
 226  270  271  1   
 227  270  272  1   
 228  270  273  1   
 229  274  275  1   
 230  275  276  1   
 231  275  277  1   
 232  275  278  1   
 233  279  280  1   
 234  280  281  1   
 235  280  282  1   
 236  280  283  1   
 237  284  285  1   
 238  285  286  1   
 239  285  287  1   
 240  285  288  1   
 241  289  290  1   
 242  290  291  1   
 243  290  292  1   
 244  290  293  1   
 245  294  295  1   
 246  295  296  1   
 247  295  297  1   
 248  295  298  1   
 249  299  300  1   
 250  300  301  1   
 251  300  302  1   
 252  300  303  1   
 253  304  305  1   
 254  305  306  1   
 255  305  307  1   
 256  305  308  1   
 257  309  310  1   
 258  310  311  1   
 259  310  312  1   
 260  310  313  1   
 261  314  315  1   
 262  315  316  1   
 263  315  317  1   
 264  315  318  1   
 265  319  320  1   
 266  320  321  1   
 267  320  322  1   
 268  320  323  1   
 269  324  325  1   
 270  325  326  1   
 271  325  327  1   
 272  325  328  1   
 273  329  330  1   
 274  330  331  1   
 275  330  332  1   
 276  330  333  1   
 277  334  335  1   
 278  335  336  1   
 279  335  337  1   
 280  335  338  1   
 281  339  340  1   
 282  340  341  1   
 283  340  342  1   
 284  340  343  1   
 285  344  345  1   
 286  345  346  1   
 287  345  347  1   
 288  345  348  1   
 289  349  350  1   
 290  350  351  1   
 291  350  352  1   
 292  350  353  1   
 293  354  355  1   
 294  355  356  1   
 295  355  357  1   
 296  355  358  1   
 297  359  360  1   
 298  360  361  1   
 299  360  362  1   
 300  360  363  1   
 301  364  365  1   
 302  365  366  1   
 303  365  367  1   
 304  365  368  1   
 305  369  370  1   
 306  370  371  1   
 307  370  372  1   
 308  370  373  1   
 309  374  375  1   
 310  375  376  1   
 311  375  377  1   
 312  375  378  1   
 313  379  380  1   
 314  380  381  1   
 315  380  382  1   
 316  380  383  1   
 317  384  385  1   
 318  385  386  1   
 319  385  387  1   
 320  385  388  1   
 321  389  390  1   
 322  390  391  1   
 323  390  392  1   
 324  390  393  1   
 325  394  395  1   
 326  395  396  1   
 327  395  397  1   
 328  395  398  1   
 329  399  400  1   
 330  400  401  1   
 331  400  402  1   
 332  400  403  1   
 333  404  405  1   
 334  405  406  1   
 335  405  407  1   
 336  405  408  1   
 337  409  410  1   
 338  410  411  1   
 339  410  412  1   
 340  410  413  1   
 341  414  415  1   
 342  415  416  1   
 343  415  417  1   
 344  415  418  1   
 345  419  420  1   
 346  420  421  1   
 347  420  422  1   
 348  420  423  1   
 349  424  425  1   
 350  425  426  1   
 351  425  427  1   
 352  425  428  1   
 353  429  430  1   
 354  430  431  1   
 355  430  432  1   
 356  430  433  1   
 357  434  435  1   
 358  435  436  1   
 359  435  437  1   
 360  435  438  1   
 361  439  440  1   
 362  440  441  1   
 363  440  442  1   
 364  440  443  1   
 365  444  445  1   
 366  445  446  1   
 367  445  447  1   
 368  445  448  1   
 369  449  450  1   
 370  450  451  1   
 371  450  452  1   
 372  450  453  1   
 373  454  455  1   
 374  455  456  1   
 375  455  457  1   
 376  455  458  1   
 377  459  460  1   
 378  460  461  1   
 379  460  462  1   
 380  460  463  1   
 381  464  465  1   
 382  465  466  1   
 383  465  467  1   
 384  465  468  1   
 385  469  470  1   
 386  470  471  1   
 387  470  472  1   
 388  470  473  1   
 389  474  475  1   
 390  475  476  1   
 391  475  477  1   
 392  475  478  1   
 393  479  480  1   
 394  480  481  1   
 395  480  482  1   
 396  480  483  1   
 397  484  485  1   
 398  485  486  1   
 399  485  487  1   
 400  485  488  1   
 401  489  490  1   
 402  490  491  1   
 403  490  492  1   
 404  490  493  1   
 405  494  495  1   
 406  495  496  1   
 407  495  497  1   
 408  495  498  1   
 409  499  500  1   
 410  500  501  1   
 411  500  502  1   
 412  500  503  1   
 413  504  505  1   
 414  505  506  1   
 415  505  507  1   
 416  505  508  1   
 417  509  510  1   
 418  510  511  1   
 419  510  512  1   
 420  510  513  1   
 421  514  515  1   
 422  515  516  1   
 423  515  517  1   
 424  515  518  1   
 425  519  520  1   
 426  520  521  1   
 427  520  522  1   
 428  520  523  1   
 429  524  525  1   
 430  525  526  1   
 431  525  527  1   
 432  525  528  1   
 433  529  530  1   
 434  530  531  1   
 435  530  532  1   
 436  530  533  1   
 437  534  535  1   
 438  535  536  1   
 439  535  537  1   
 440  535  538  1   
 441  539  540  1   
 442  540  541  1   
 443  540  542  1   
 444  540  543  1   
 445  544  545  1   
 446  545  546  1   
 447  545  547  1   
 448  545  548  1   
 449  549  550  1   
 450  550  551  1   
 451  550  552  1   
 452  550  553  1   
 453  554  555  1   
 454  555  556  1   
 455  555  557  1   
 456  555  558  1   
 457  559  560  1   
 458  560  561  1   
 459  560  562  1   
 460  560  563  1   
 461  564  565  1   
 462  565  566  1   
 463  565  567  1   
 464  565  568  1   
 465  569  570  1   
 466  570  571  1   
 467  570  572  1   
 468  570  573  1   
 469  574  575  1   
 470  575  576  1   
 471  575  577  1   
 472  575  578  1   
 473  579  580  1   
 474  580  581  1   
 475  580  582  1   
 476  580  583  1   
 477  584  585  1   
 478  585  586  1   
 479  585  587  1   
 480  585  588  1   
 481  589  590  1   
 482  590  591  1   
 483  590  592  1   
 484  590  593  1   
 485  594  595  1   
 486  595  596  1   
 487  595  597  1   
 488  595  598  1   
 489  599  600  1   
 490  600  601  1   
 491  600  602  1   
 492  600  603  1   
 493  604  605  1   
 494  605  606  1   
 495  605  607  1   
 496  605  608  1   
 497  609  610  1   
 498  610  611  1   
 499  610  612  1   
 500  610  613  1   
 501  614  615  1   
 502  615  616  1   
 503  615  617  1   
 504  615  618  1   
 505  619  620  1   
 506  620  621  1   
 507  620  622  1   
 508  620  623  1   
 509  624  625  1   
 510  625  626  1   
 511  625  627  1   
 512  625  628  1   
 513  629  630  1   
 514  630  631  1   
 515  630  632  1   
 516  630  633  1   
 517  634  635  1   
 518  635  636  1   
 519  635  637  1   
 520  635  638  1   
 521  639  640  1   
 522  640  641  1   
 523  640  642  1   
 524  640  643  1   
 525  644  645  1   
 526  645  646  1   
 527  645  647  1   
 528  645  648  1   
 529  649  650  1   
 530  650  651  1   
 531  650  652  1   
 532  650  653  1   
 533  654  655  1   
 534  655  656  1   
 535  655  657  1   
 536  655  658  1   
 537  659  660  1   
 538  660  661  1   
 539  660  662  1   
 540  660  663  1   
 541  664  665  1   
 542  665  666  1   
 543  665  667  1   
 544  665  668  1   
 545  669  670  1   
 546  670  671  1   
 547  670  672  1   
 548  670  673  1   
 549  674  675  1   
 550  675  676  1   
 551  675  677  1   
 552  675  678  1   
 553  679  680  1   
 554  680  681  1   
 555  680  682  1   
 556  680  683  1   
 557  684  685  1   
 558  685  686  1   
 559  685  687  1   
 560  685  688  1   
 561  689  690  1   
 562  690  691  1   
 563  690  692  1   
 564  690  693  1   
 565  694  695  1   
 566  695  696  1   
 567  695  697  1   
 568  695  698  1   
 569  699  700  1   
 570  700  701  1   
 571  700  702  1   
 572  700  703  1   
 573  704  705  1   
 574  705  706  1   
 575  705  707  1   
 576  705  708  1   
 577  709  710  1   
 578  710  711  1   
 579  710  712  1   
 580  710  713  1   
 581  714  715  1   
 582  715  716  1   
 583  715  717  1   
 584  715  718  1   
 585  719  720  1   
 586  720  721  1   
 587  720  722  1   
 588  720  723  1   
 589  724  725  1   
 590  725  726  1   
 591  725  727  1   
 592  725  728  1   
 593  729  730  1   
 594  730  731  1   
 595  730  732  1   
 596  730  733  1   
 597  734  735  1   
 598  735  736  1   
 599  735  737  1   
 600  735  738  1   
 601  739  740  1   
 602  740  741  1   
 603  740  742  1   
 604  740  743  1   
 605  744  745  1   
 606  745  746  1   
 607  745  747  1   
 608  745  748  1   
 609  749  750  1   
 610  750  751  1   
 611  750  752  1   
 612  750  753  1   
 613  754  755  1   
 614  755  756  1   
 615  755  757  1   
 616  755  758  1   
 617  759  760  1   
 618  760  761  1   
 619  760  762  1   
 620  760  763  1   
 621  764  765  1   
 622  765  766  1   
 623  765  767  1   
 624  765  768  1   
 625  769  770  1   
 626  770  771  1   
 627  770  772  1   
 628  770  773  1   
 629  774  775  1   
 630  775  776  1   
 631  775  777  1   
 632  775  778  1   
 633  779  780  1   
 634  780  781  1   
 635  780  782  1   
 636  780  783  1   
 637  784  785  1   
 638  785  786  1   
 639  785  787  1   
 640  785  788  1   
 641  789  790  1   
 642  790  791  1   
 643  790  792  1   
 644  790  793  1   
 645  794  795  1   
 646  795  796  1   
 647  795  797  1   
 648  795  798  1   
 649  799  800  1   
 650  800  801  1   
 651  800  802  1   
 652  800  803  1   
 653  804  805  1   
 654  805  806  1   
 655  805  807  1   
 656  805  808  1   
 657  809  810  1   
 658  810  811  1   
 659  810  812  1   
 660  810  813  1   
 661  814  815  1   
 662  815  816  1   
 663  815  817  1   
 664  815  818  1   
 665  819  820  1   
 666  820  821  1   
 667  820  822  1   
 668  820  823  1   
 669  824  825  1   
 670  825  826  1   
 671  825  827  1   
 672  825  828  1   
 673  829  830  1   
 674  830  831  1   
 675  830  832  1   
 676  830  833  1   
 677  834  835  1   
 678  835  836  1   
 679  835  837  1   
 680  835  838  1   
 681  839  840  1   
 682  840  841  1   
 683  840  842  1   
 684  840  843  1   
 685  844  845  1   
 686  845  846  1   
 687  845  847  1   
 688  845  848  1   
 689  849  850  1   
 690  850  851  1   
 691  850  852  1   
 692  850  853  1   
 693  854  855  1   
 694  855  856  1   
 695  855  857  1   
 696  855  858  1   
 697  859  860  1   
 698  860  861  1   
 699  860  862  1   
 700  860  863  1   
 701  864  865  1   
 702  865  866  1   
 703  865  867  1   
 704  865  868  1   
 705  869  870  1   
 706  870  871  1   
 707  870  872  1   
 708  870  873  1   
 709  874  875  1   
 710  875  876  1   
 711  875  877  1   
 712  875  878  1   
 713  879  880  1   
 714  880  881  1   
 715  880  882  1   
 716  880  883  1   
 717  884  885  1   
 718  885  886  1   
 719  885  887  1   
 720  885  888  1   
 721  889  890  1   
 722  890  891  1   
 723  890  892  1   
 724  890  893  1   
 725  894  895  1   
 726  895  896  1   
 727  895  897  1   
 728  895  898  1   
 729  899  900  1   
 730  900  901  1   
 731  900  902  1   
 732  900  903  1   
 733  904  905  1   
 734  905  906  1   
 735  905  907  1   
 736  905  908  1   
 737  909  910  1   
 738  910  911  1   
 739  910  912  1   
 740  910  913  1   
 741  914  915  1   
 742  915  916  1   
 743  915  917  1   
 744  915  918  1   
 745  919  920  1   
 746  920  921  1   
 747  920  922  1   
 748  920  923  1   
 749  924  925  1   
 750  925  926  1   
 751  925  927  1   
 752  925  928  1   
 753  929  930  1   
 754  930  931  1   
 755  930  932  1   
 756  930  933  1   
 757  934  935  1   
 758  935  936  1   
 759  935  937  1   
 760  935  938  1   
 761  939  940  1   
 762  940  941  1   
 763  940  942  1   
 764  940  943  1   
 765  944  945  1   
 766  945  946  1   
 767  945  947  1   
 768  945  948  1   
 769  949  950  1   
 770  950  951  1   
 771  950  952  1   
 772  950  953  1   
 773  954  955  1   
 774  955  956  1   
 775  955  957  1   
 776  955  958  1   
 777  959  960  1   
 778  960  961  1   
 779  960  962  1   
 780  960  963  1   
 781  964  965  1   
 782  965  966  1   
 783  965  967  1   
 784  965  968  1   
 785  969  970  1   
 786  970  971  1   
 787  970  972  1   
 788  970  973  1   
 789  974  975  1   
 790  975  976  1   
 791  975  977  1   
 792  975  978  1   
 793  979  980  1   
 794  980  981  1   
 795  980  982  1   
 796  980  983  1   
 797  984  985  1   
 798  985  986  1   
 799  985  987  1   
 800  985  988  1   
 801  989  990  1   
 802  990  991  1   
 803  990  992  1   
 804  990  993  1   
 805  994  995  1   
 806  995  996  1   
 807  995  997  1   
 808  995  998  1   
 809  999 1000  1   
 810 1000 1001  1   
 811 1000 1002  1   
 812 1000 1003  1   
 813 1004 1005  1   
 814 1005 1006  1   
 815 1005 1007  1   
 816 1005 1008  1   
 817 1009 1010  1   
 818 1010 1011  1   
 819 1010 1012  1   
 820 1010 1013  1   
 821 1014 1015  1   
 822 1015 1016  1   
 823 1015 1017  1   
 824 1015 1018  1   
 825 1019 1020  1   
 826 1020 1021  1   
 827 1020 1022  1   
 828 1020 1023  1   
 829 1024 1025  1   
 830 1025 1026  1   
 831 1025 1027  1   
 832 1025 1028  1   
 833 1029 1030  1   
 834 1030 1031  1   
 835 1030 1032  1   
 836 1030 1033  1   
 837 1034 1035  1   
 838 1035 1036  1   
 839 1035 1037  1   
 840 1035 1038  1   
 841 1039 1040  1   
 842 1040 1041  1   
 843 1040 1042  1   
 844 1040 1043  1   
 845 1044 1045  1   
 846 1045 1046  1   
 847 1045 1047  1   
 848 1045 1048  1   
 849 1049 1050  1   
 850 1050 1051  1   
 851 1050 1052  1   
 852 1050 1053  1   
 853 1054 1055  1   
 854 1055 1056  1   
 855 1055 1057  1   
 856 1055 1058  1   
 857 1059 1060  1   
 858 1060 1061  1   
 859 1060 1062  1   
 860 1060 1063  1   
 861 1064 1065  1   
 862 1065 1066  1   
 863 1065 1067  1   
 864 1065 1068  1   
 865 1069 1070  1   
 866 1070 1071  1   
 867 1070 1072  1   
 868 1070 1073  1   
 869 1074 1075  1   
 870 1075 1076  1   
 871 1075 1077  1   
 872 1075 1078  1   
 873 1079 1080  1   
 874 1080 1081  1   
 875 1080 1082  1   
 876 1080 1083  1   
 877 1084 1085  1   
 878 1085 1086  1   
 879 1085 1087  1   
 880 1085 1088  1   
 881 1089 1090  1   
 882 1090 1091  1   
 883 1090 1092  1   
 884 1090 1093  1   
 885 1094 1095  1   
 886 1095 1096  1   
 887 1095 1097  1   
 888 1095 1098  1   
 889 1099 1100  1   
 890 1100 1101  1   
 891 1100 1102  1   
 892 1100 1103  1   
 893 1104 1105  1   
 894 1105 1106  1   
 895 1105 1107  1   
 896 1105 1108  1   
 897 1109 1110  1   
 898 1110 1111  1   
 899 1110 1112  1   
 900 1110 1113  1   
 901 1114 1115  1   
 902 1115 1116  1   
 903 1115 1117  1   
 904 1115 1118  1   
 905 1119 1120  1   
 906 1120 1121  1   
 907 1120 1122  1   
 908 1120 1123  1   
 909 1124 1125  1   
 910 1125 1126  1   
 911 1125 1127  1   
 912 1125 1128  1   
 913 1129 1130  1   
 914 1130 1131  1   
 915 1130 1132  1   
 916 1130 1133  1   
 917 1134 1135  1   
 918 1135 1136  1   
 919 1135 1137  1   
 920 1135 1138  1   
 921 1139 1140  1   
 922 1140 1141  1   
 923 1140 1142  1   
 924 1140 1143  1   
 925 1144 1145  1   
 926 1145 1146  1   
 927 1145 1147  1   
 928 1145 1148  1   
 929 1149 1150  1   
 930 1150 1151  1   
 931 1150 1152  1   
 932 1150 1153  1   
 933 1154 1155  1   
 934 1155 1156  1   
 935 1155 1157  1   
 936 1155 1158  1   
 937 1159 1160  1   
 938 1160 1161  1   
 939 1160 1162  1   
 940 1160 1163  1   
 941 1164 1165  1   
 942 1165 1166  1   
 943 1165 1167  1   
 944 1165 1168  1   
 945 1169 1170  1   
 946 1170 1171  1   
 947 1170 1172  1   
 948 1170 1173  1   
 949 1174 1175  1   
 950 1175 1176  1   
 951 1175 1177  1   
 952 1175 1178  1   
 953 1179 1180  1   
 954 1180 1181  1   
 955 1180 1182  1   
 956 1180 1183  1   
 957 1184 1185  1   
 958 1185 1186  1   
 959 1185 1187  1   
 960 1185 1188  1   
 961 1189 1190  1   
 962 1190 1191  1   
 963 1190 1192  1   
 964 1190 1193  1   
 965 1194 1195  1   
 966 1195 1196  1   
 967 1195 1197  1   
 968 1195 1198  1   
 969 1199 1200  1   
 970 1200 1201  1   
 971 1200 1202  1   
 972 1200 1203  1   
 973 1204 1205  1   
 974 1205 1206  1   
 975 1205 1207  1   
 976 1205 1208  1   
 977 1209 1210  1   
 978 1210 1211  1   
 979 1210 1212  1   
 980 1210 1213  1   
 981 1214 1215  1   
 982 1215 1216  1   
 983 1215 1217  1   
 984 1215 1218  1   
 985 1219 1220  1   
 986 1220 1221  1   
 987 1220 1222  1   
 988 1220 1223  1   
 989 1224 1225  1   
 990 1225 1226  1   
 991 1225 1227  1   
 992 1225 1228  1   
 993 1229 1230  1   
 994 1230 1231  1   
 995 1230 1232  1   
 996 1230 1233  1   
 997 1234 1235  1   
 998 1235 1236  1   
 999 1235 1237  1   
1000 1235 1238  1   
1001 1239 1240  1   
1002 1240 1241  1   
1003 1240 1242  1   
1004 1240 1243  1   
1005 1244 1245  1   
1006 1245 1246  1   
1007 1245 1247  1   
1008 1245 1248  1   
1009 1249 1250  1   
1010 1250 1251  1   
1011 1250 1252  1   
1012 1250 1253  1   
1013 1254 1255  1   
1014 1255 1256  1   
1015 1255 1257  1   
1016 1255 1258  1   
1017 1259 1260  1   
1018 1260 1261  1   
1019 1260 1262  1   
1020 1260 1263  1   
1021 1264 1265  1   
1022 1265 1266  1   
1023 1265 1267  1   
1024 1265 1268  1   
1025 1269 1270  1   
1026 1270 1271  1   
1027 1270 1272  1   
1028 1270 1273  1   
1029 1274 1275  1   
1030 1275 1276  1   
1031 1275 1277  1   
1032 1275 1278  1   
1033 1279 1280  1   
1034 1280 1281  1   
1035 1280 1282  1   
1036 1280 1283  1   
1037 1284 1285  1   
1038 1285 1286  1   
1039 1285 1287  1   
1040 1285 1288  1   
1041 1289 1290  1   
1042 1290 1291  1   
1043 1290 1292  1   
1044 1290 1293  1   
1045 1294 1295  1   
1046 1295 1296  1   
1047 1295 1297  1   
1048 1295 1298  1   
1049 1299 1300  1   
1050 1300 1301  1   
1051 1300 1302  1   
1052 1300 1303  1   
1053 1304 1305  1   
1054 1305 1306  1   
1055 1305 1307  1   
1056 1305 1308  1   
1057 1309 1310  1   
1058 1310 1311  1   
1059 1310 1312  1   
1060 1310 1313  1   
1061 1314 1315  1   
1062 1315 1316  1   
1063 1315 1317  1   
1064 1315 1318  1   
1065 1319 1320  1   
1066 1320 1321  1   
1067 1320 1322  1   
1068 1320 1323  1   
1069 1324 1325  1   
1070 1325 1326  1   
1071 1325 1327  1   
1072 1325 1328  1   
1073 1329 1330  1   
1074 1330 1331  1   
1075 1330 1332  1   
1076 1330 1333  1   
1077 1334 1335  1   
1078 1335 1336  1   
1079 1335 1337  1   
1080 1335 1338  1   
1081 1339 1340  1   
1082 1340 1341  1   
1083 1340 1342  1   
1084 1340 1343  1   
1085 1344 1345  1   
1086 1345 1346  1   
1087 1345 1347  1   
1088 1345 1348  1   
1089 1349 1350  1   
1090 1350 1351  1   
1091 1350 1352  1   
1092 1350 1353  1   
1093 1354 1355  1   
1094 1355 1356  1   
1095 1355 1357  1   
1096 1355 1358  1   
1097 1359 1360  1   
1098 1360 1361  1   
1099 1360 1362  1   
1100 1360 1363  1   
1101 1364 1365  1   
1102 1365 1366  1   
1103 1365 1367  1   
1104 1365 1368  1   
1105 1369 1370  1   
1106 1370 1371  1   
1107 1370 1372  1   
1108 1370 1373  1   
1109 1374 1375  1   
1110 1375 1376  1   
1111 1375 1377  1   
1112 1375 1378  1   
1113 1379 1380  1   
1114 1380 1381  1   
1115 1380 1382  1   
1116 1380 1383  1   
1117 1384 1385  1   
1118 1385 1386  1   
1119 1385 1387  1   
1120 1385 1388  1   
1121 1389 1390  1   
1122 1390 1391  1   
1123 1390 1392  1   
1124 1390 1393  1   
1125 1394 1395  1   
1126 1395 1396  1   
1127 1395 1397  1   
1128 1395 1398  1   
1129 1399 1400  1   
1130 1400 1401  1   
1131 1400 1402  1   
1132 1400 1403  1   
1133 1404 1405  1   
1134 1405 1406  1   
1135 1405 1407  1   
1136 1405 1408  1   
1137 1409 1410  1   
1138 1410 1411  1   
1139 1410 1412  1   
1140 1410 1413  1   
1141 1414 1415  1   
1142 1415 1416  1   
1143 1415 1417  1   
1144 1415 1418  1   
1145 1419 1420  1   
1146 1420 1421  1   
1147 1420 1422  1   
1148 1420 1423  1   
1149 1424 1425  1   
1150 1425 1426  1   
1151 1425 1427  1   
1152 1425 1428  1   
1153 1429 1430  1   
1154 1430 1431  1   
1155 1430 1432  1   
1156 1430 1433  1   
1157 1434 1435  1   
1158 1435 1436  1   
1159 1435 1437  1   
1160 1435 1438  1   
1161 1439 1440  1   
1162 1440 1441  1   
1163 1440 1442  1   
1164 1440 1443  1   
1165 1444 1445  1   
1166 1445 1446  1   
1167 1445 1447  1   
1168 1445 1448  1   
1169 1449 1450  1   
1170 1450 1451  1   
1171 1450 1452  1   
1172 1450 1453  1   
1173 1454 1455  1   
1174 1455 1456  1   
1175 1455 1457  1   
1176 1455 1458  1   
1177 1459 1460  1   
1178 1460 1461  1   
1179 1460 1462  1   
1180 1460 1463  1   
1181 1464 1465  1   
1182 1465 1466  1   
1183 1465 1467  1   
1184 1465 1468  1   
1185 1469 1470  1   
1186 1470 1471  1   
1187 1470 1472  1   
1188 1470 1473  1   
1189 1474 1475  1   
1190 1475 1476  1   
1191 1475 1477  1   
1192 1475 1478  1   
1193 1479 1480  1   
1194 1480 1481  1   
1195 1480 1482  1   
1196 1480 1483  1   
1197 1484 1485  1   
1198 1485 1486  1   
1199 1485 1487  1   
1200 1485 1488  1   
1201 1489 1490  1   
1202 1490 1491  1   
1203 1490 1492  1   
1204 1490 1493  1   
1205 1494 1495  1   
1206 1495 1496  1   
1207 1495 1497  1   
1208 1495 1498  1   
1209 1499 1500  1   
1210 1500 1501  1   
1211 1500 1502  1   
1212 1500 1503  1   
1213 1504 1505  1   
1214 1505 1506  1   
1215 1505 1507  1   
1216 1505 1508  1   
1217 1509 1510  1   
1218 1510 1511  1   
1219 1510 1512  1   
1220 1510 1513  1   
1221 1514 1515  1   
1222 1515 1516  1   
1223 1515 1517  1   
1224 1515 1518  1   
1225 1519 1520  1   
1226 1520 1521  1   
1227 1520 1522  1   
1228 1520 1523  1   
1229 1524 1525  1   
1230 1525 1526  1   
1231 1525 1527  1   
1232 1525 1528  1   
1233 1529 1530  1   
1234 1530 1531  1   
1235 1530 1532  1   
1236 1530 1533  1   
1237 1534 1535  1   
1238 1535 1536  1   
1239 1535 1537  1   
1240 1535 1538  1   
1241 1539 1540  1   
1242 1540 1541  1   
1243 1540 1542  1   
1244 1540 1543  1   
1245 1544 1545  1   
1246 1545 1546  1   
1247 1545 1547  1   
1248 1545 1548  1   
1249 1549 1550  1   
1250 1550 1551  1   
1251 1550 1552  1   
1252 1550 1553  1   
1253 1554 1555  1   
1254 1555 1556  1   
1255 1555 1557  1   
1256 1555 1558  1   
1257 1559 1560  1   
1258 1560 1561  1   
1259 1560 1562  1   
1260 1560 1563  1   
1261 1564 1565  1   
1262 1565 1566  1   
1263 1565 1567  1   
1264 1565 1568  1   
1265 1569 1570  1   
1266 1570 1571  1   
1267 1570 1572  1   
1268 1570 1573  1   
1269 1574 1575  1   
1270 1575 1576  1   
1271 1575 1577  1   
1272 1575 1578  1   
1273 1579 1580  1   
1274 1580 1581  1   
1275 1580 1582  1   
1276 1580 1583  1   
1277 1584 1585  1   
1278 1585 1586  1   
1279 1585 1587  1   
1280 1585 1588  1   
1281 1589 1590  1   
1282 1590 1591  1   
1283 1590 1592  1   
1284 1590 1593  1   
1285 1594 1595  1   
1286 1595 1596  1   
1287 1595 1597  1   
1288 1595 1598  1   
1289 1599 1600  1   
1290 1600 1601  1   
1291 1600 1602  1   
1292 1600 1603  1   
1293 1604 1605  1   
1294 1605 1606  1   
1295 1605 1607  1   
1296 1605 1608  1   
1297 1609 1610  1   
1298 1610 1611  1   
1299 1610 1612  1   
1300 1610 1613  1   
1301 1614 1615  1   
1302 1615 1616  1   
1303 1615 1617  1   
1304 1615 1618  1   
1305 1619 1620  1   
1306 1620 1621  1   
1307 1620 1622  1   
1308 1620 1623  1   
1309 1624 1625  1   
1310 1625 1626  1   
1311 1625 1627  1   
1312 1625 1628  1   
1313 1629 1630  1   
1314 1630 1631  1   
1315 1630 1632  1   
1316 1630 1633  1   
1317 1634 1635  1   
1318 1635 1636  1   
1319 1635 1637  1   
1320 1635 1638  1   
1321 1639 1640  1   
1322 1640 1641  1   
1323 1640 1642  1   
1324 1640 1643  1   
1325 1644 1645  1   
1326 1645 1646  1   
1327 1645 1647  1   
1328 1645 1648  1   
1329 1649 1650  1   
1330 1650 1651  1   
1331 1650 1652  1   
1332 1650 1653  1   
1333 1654 1655  1   
1334 1655 1656  1   
1335 1655 1657  1   
1336 1655 1658  1   
1337 1659 1660  1   
1338 1660 1661  1   
1339 1660 1662  1   
1340 1660 1663  1   
1341 1664 1665  1   
1342 1665 1666  1   
1343 1665 1667  1   
1344 1665 1668  1   
1345 1669 1670  1   
1346 1670 1671  1   
1347 1670 1672  1   
1348 1670 1673  1   
1349 1674 1675  1   
1350 1675 1676  1   
1351 1675 1677  1   
1352 1675 1678  1   
1353 1679 1680  1   
1354 1680 1681  1   
1355 1680 1682  1   
1356 1680 1683  1   
1357 1684 1685  1   
1358 1685 1686  1   
1359 1685 1687  1   
1360 1685 1688  1   
1361 1689 1690  1   
1362 1690 1691  1   
1363 1690 1692  1   
1364 1690 1693  1   
1365 1694 1695  1   
1366 1695 1696  1   
1367 1695 1697  1   
1368 1695 1698  1   
1369 1699 1700  1   
1370 1700 1701  1   
1371 1700 1702  1   
1372 1700 1703  1   
1373 1704 1705  1   
1374 1705 1706  1   
1375 1705 1707  1   
1376 1705 1708  1   
1377 1709 1710  1   
1378 1710 1711  1   
1379 1710 1712  1   
1380 1710 1713  1   
1381 1714 1715  1   
1382 1715 1716  1   
1383 1715 1717  1   
1384 1715 1718  1   
1385 1719 1720  1   
1386 1720 1721  1   
1387 1720 1722  1   
1388 1720 1723  1   
1389 1724 1725  1   
1390 1725 1726  1   
1391 1725 1727  1   
1392 1725 1728  1   
1393 1729 1730  1   
1394 1730 1731  1   
1395 1730 1732  1   
1396 1730 1733  1   
1397 1734 1735  1   
1398 1735 1736  1   
1399 1735 1737  1   
1400 1735 1738  1   
1401 1739 1740  1   
1402 1740 1741  1   
1403 1740 1742  1   
1404 1740 1743  1   
1405 1744 1745  1   
1406 1745 1746  1   
1407 1745 1747  1   
1408 1745 1748  1   
1409 1749 1750  1   
1410 1750 1751  1   
1411 1750 1752  1   
1412 1750 1753  1   
1413 1754 1755  1   
1414 1755 1756  1   
1415 1755 1757  1   
1416 1755 1758  1   
1417 1759 1760  1   
1418 1760 1761  1   
1419 1760 1762  1   
1420 1760 1763  1   
1421 1764 1765  1   
1422 1765 1766  1   
1423 1765 1767  1   
1424 1765 1768  1   
1425 1769 1770  1   
1426 1770 1771  1   
1427 1770 1772  1   
1428 1770 1773  1   
1429 1774 1775  1   
1430 1775 1776  1   
1431 1775 1777  1   
1432 1775 1778  1   
1433 1779 1780  1   
1434 1780 1781  1   
1435 1780 1782  1   
1436 1780 1783  1   
1437 1784 1785  1   
1438 1785 1786  1   
1439 1785 1787  1   
1440 1785 1788  1   
1441 1789 1790  1   
1442 1790 1791  1   
1443 1790 1792  1   
1444 1790 1793  1   
1445 1794 1795  1   
1446 1795 1796  1   
1447 1795 1797  1   
1448 1795 1798  1   
1449 1799 1800  1   
1450 1800 1801  1   
1451 1800 1802  1   
1452 1800 1803  1   
1453 1804 1805  1   
1454 1805 1806  1   
1455 1805 1807  1   
1456 1805 1808  1   
1457 1809 1810  1   
1458 1810 1811  1   
1459 1810 1812  1   
1460 1810 1813  1   
1461 1814 1815  1   
1462 1815 1816  1   
1463 1815 1817  1   
1464 1815 1818  1   
1465 1819 1820  1   
1466 1820 1821  1   
1467 1820 1822  1   
1468 1820 1823  1   
1469 1824 1825  1   
1470 1825 1826  1   
1471 1825 1827  1   
1472 1825 1828  1   
1473 1829 1830  1   
1474 1830 1831  1   
1475 1830 1832  1   
1476 1830 1833  1   
1477 1834 1835  1   
1478 1835 1836  1   
1479 1835 1837  1   
1480 1835 1838  1   
1481 1839 1840  1   
1482 1840 1841  1   
1483 1840 1842  1   
1484 1840 1843  1   
1485 1844 1845  1   
1486 1845 1846  1   
1487 1845 1847  1   
1488 1845 1848  1   
1489 1849 1850  1   
1490 1850 1851  1   
1491 1850 1852  1   
1492 1850 1853  1   
1493 1854 1855  1   
1494 1855 1856  1   
1495 1855 1857  1   
1496 1855 1858  1   
1497 1859 1860  1   
1498 1860 1861  1   
1499 1860 1862  1   
1500 1860 1863  1   
1501 1864 1865  1   
1502 1865 1866  1   
1503 1865 1867  1   
1504 1865 1868  1   
1505 1869 1870  1   
1506 1870 1871  1   
1507 1870 1872  1   
1508 1870 1873  1   
1509 1874 1875  1   
1510 1875 1876  1   
1511 1875 1877  1   
1512 1875 1878  1   
1513 1879 1880  1   
1514 1880 1881  1   
1515 1880 1882  1   
1516 1880 1883  1   
1517 1884 1885  1   
1518 1885 1886  1   
1519 1885 1887  1   
1520 1885 1888  1   
1521 1889 1890  1   
1522 1890 1891  1   
1523 1890 1892  1   
1524 1890 1893  1   
1525 1894 1895  1   
1526 1895 1896  1   
1527 1895 1897  1   
1528 1895 1898  1   
1529 1899 1900  1   
1530 1900 1901  1   
1531 1900 1902  1   
1532 1900 1903  1   
1533 1904 1905  1   
1534 1905 1906  1   
1535 1905 1907  1   
1536 1905 1908  1   
1537 1909 1910  1   
1538 1910 1911  1   
1539 1910 1912  1   
1540 1910 1913  1   
1541 1914 1915  1   
1542 1915 1916  1   
1543 1915 1917  1   
1544 1915 1918  1   
1545 1919 1920  1   
1546 1920 1921  1   
1547 1920 1922  1   
1548 1920 1923  1   
1549 1924 1925  1   
1550 1925 1926  1   
1551 1925 1927  1   
1552 1925 1928  1   
1553 1929 1930  1   
1554 1930 1931  1   
1555 1930 1932  1   
1556 1930 1933  1   
1557 1934 1935  1   
1558 1935 1936  1   
1559 1935 1937  1   
1560 1935 1938  1   
1561 1939 1940  1   
1562 1940 1941  1   
1563 1940 1942  1   
1564 1940 1943  1   
1565 1944 1945  1   
1566 1945 1946  1   
1567 1945 1947  1   
1568 1945 1948  1   
1569 1949 1950  1   
1570 1950 1951  1   
1571 1950 1952  1   
1572 1950 1953  1   
1573 1954 1955  1   
1574 1955 1956  1   
1575 1955 1957  1   
1576 1955 1958  1   
1577 1959 1960  1   
1578 1960 1961  1   
1579 1960 1962  1   
1580 1960 1963  1   
1581 1964 1965  1   
1582 1965 1966  1   
1583 1965 1967  1   
1584 1965 1968  1   
1585 1969 1970  1   
1586 1970 1971  1   
1587 1970 1972  1   
1588 1970 1973  1   
1589 1974 1975  1   
1590 1975 1976  1   
1591 1975 1977  1   
1592 1975 1978  1   
1593 1979 1980  1   
1594 1980 1981  1   
1595 1980 1982  1   
1596 1980 1983  1   
1597 1984 1985  1   
1598 1985 1986  1   
1599 1985 1987  1   
1600 1985 1988  1   
1601 1989 1990  1   
1602 1990 1991  1   
1603 1990 1992  1   
1604 1990 1993  1   
1605 1994 1995  1   
1606 1995 1996  1   
1607 1995 1997  1   
1608 1995 1998  1   
1609 1999 2000  1   
1610 2000 2001  1   
1611 2000 2002  1   
1612 2000 2003  1   
1613 2004 2005  1   
1614 2005 2006  1   
1615 2005 2007  1   
1616 2005 2008  1   
1617 2009 2010  1   
1618 2010 2011  1   
1619 2010 2012  1   
1620 2010 2013  1   
1621 2014 2015  1   
1622 2015 2016  1   
1623 2015 2017  1   
1624 2015 2018  1   
1625 2019 2020  1   
1626 2020 2021  1   
1627 2020 2022  1   
1628 2020 2023  1   
1629 2024 2025  1   
1630 2025 2026  1   
1631 2025 2027  1   
1632 2025 2028  1   
1633 2029 2030  1   
1634 2030 2031  1   
1635 2030 2032  1   
1636 2030 2033  1   
1637 2034 2035  1   
1638 2035 2036  1   
1639 2035 2037  1   
1640 2035 2038  1   
1641 2039 2040  1   
1642 2040 2041  1   
1643 2040 2042  1   
1644 2040 2043  1   
1645 2044 2045  1   
1646 2045 2046  1   
1647 2045 2047  1   
1648 2045 2048  1   
1649 2049 2050  1   
1650 2050 2051  1   
1651 2050 2052  1   
1652 2050 2053  1   
1653 2054 2055  1   
1654 2055 2056  1   
1655 2055 2057  1   
1656 2055 2058  1   
1657 2059 2060  1   
1658 2060 2061  1   
1659 2060 2062  1   
1660 2060 2063  1   
1661 2064 2065  1   
1662 2065 2066  1   
1663 2065 2067  1   
1664 2065 2068  1   
1665 2069 2070  1   
1666 2070 2071  1   
1667 2070 2072  1   
1668 2070 2073  1   
1669 2074 2075  1   
1670 2075 2076  1   
1671 2075 2077  1   
1672 2075 2078  1   
1673 2079 2080  1   
1674 2080 2081  1   
1675 2080 2082  1   
1676 2080 2083  1   
1677 2084 2085  1   
1678 2085 2086  1   
1679 2085 2087  1   
1680 2085 2088  1   
1681 2089 2090  1   
1682 2090 2091  1   
1683 2090 2092  1   
1684 2090 2093  1   
1685 2094 2095  1   
1686 2095 2096  1   
1687 2095 2097  1   
1688 2095 2098  1   
1689 2099 2100  1   
1690 2100 2101  1   
1691 2100 2102  1   
1692 2100 2103  1   
1693 2104 2105  1   
1694 2105 2106  1   
1695 2105 2107  1   
1696 2105 2108  1   
1697 2109 2110  1   
1698 2110 2111  1   
1699 2110 2112  1   
1700 2110 2113  1   
1701 2114 2115  1   
1702 2115 2116  1   
1703 2115 2117  1   
1704 2115 2118  1   
1705 2119 2120  1   
1706 2120 2121  1   
1707 2120 2122  1   
1708 2120 2123  1   
1709 2124 2125  1   
1710 2125 2126  1   
1711 2125 2127  1   
1712 2125 2128  1   
1713 2129 2130  1   
1714 2130 2131  1   
1715 2130 2132  1   
1716 2130 2133  1   
1717 2134 2135  1   
1718 2135 2136  1   
1719 2135 2137  1   
1720 2135 2138  1   
1721 2139 2140  1   
1722 2140 2141  1   
1723 2140 2142  1   
1724 2140 2143  1   
1725 2144 2145  1   
1726 2145 2146  1   
1727 2145 2147  1   
1728 2145 2148  1   
1729 2149 2150  1   
1730 2150 2151  1   
1731 2150 2152  1   
1732 2150 2153  1   
1733 2154 2155  1   
1734 2155 2156  1   
1735 2155 2157  1   
1736 2155 2158  1   
1737 2159 2160  1   
1738 2160 2161  1   
1739 2160 2162  1   
1740 2160 2163  1   
1741 2164 2165  1   
1742 2165 2166  1   
1743 2165 2167  1   
1744 2165 2168  1   
1745 2169 2170  1   
1746 2170 2171  1   
1747 2170 2172  1   
1748 2170 2173  1   
1749 2174 2175  1   
1750 2175 2176  1   
1751 2175 2177  1   
1752 2175 2178  1   
1753 2179 2180  1   
1754 2180 2181  1   
1755 2180 2182  1   
1756 2180 2183  1   
1757 2184 2185  1   
1758 2185 2186  1   
1759 2185 2187  1   
1760 2185 2188  1   
1761 2189 2190  1   
1762 2190 2191  1   
1763 2190 2192  1   
1764 2190 2193  1   
1765 2194 2195  1   
1766 2195 2196  1   
1767 2195 2197  1   
1768 2195 2198  1   
1769 2199 2200  1   
1770 2200 2201  1   
1771 2200 2202  1   
1772 2200 2203  1   
1773 2204 2205  1   
1774 2205 2206  1   
1775 2205 2207  1   
1776 2205 2208  1   
1777 2209 2210  1   
1778 2210 2211  1   
1779 2210 2212  1   
1780 2210 2213  1   
1781 2214 2215  1   
1782 2215 2216  1   
1783 2215 2217  1   
1784 2215 2218  1   
1785 2219 2220  1   
1786 2220 2221  1   
1787 2220 2222  1   
1788 2220 2223  1   
1789 2224 2225  1   
1790 2225 2226  1   
1791 2225 2227  1   
1792 2225 2228  1   
1793 2229 2230  1   
1794 2230 2231  1   
1795 2230 2232  1   
1796 2230 2233  1   
1797 2234 2235  1   
1798 2235 2236  1   
1799 2235 2237  1   
1800 2235 2238  1   
1801 2239 2240  1   
1802 2240 2241  1   
1803 2240 2242  1   
1804 2240 2243  1   
1805 2244 2245  1   
1806 2245 2246  1   
1807 2245 2247  1   
1808 2245 2248  1   
1809 2249 2250  1   
1810 2250 2251  1   
1811 2250 2252  1   
1812 2250 2253  1   
1813 2254 2255  1   
1814 2255 2256  1   
1815 2255 2257  1   
1816 2255 2258  1   
1817 2259 2260  1   
1818 2260 2261  1   
1819 2260 2262  1   
1820 2260 2263  1   
1821 2264 2265  1   
1822 2265 2266  1   
1823 2265 2267  1   
1824 2265 2268  1   
1825 2269 2270  1   
1826 2270 2271  1   
1827 2270 2272  1   
1828 2270 2273  1   
1829 2274 2275  1   
1830 2275 2276  1   
1831 2275 2277  1   
1832 2275 2278  1   
1833 2279 2280  1   
1834 2280 2281  1   
1835 2280 2282  1   
1836 2280 2283  1   
1837 2284 2285  1   
1838 2285 2286  1   
1839 2285 2287  1   
1840 2285 2288  1   
1841 2289 2290  1   
1842 2290 2291  1   
1843 2290 2292  1   
1844 2290 2293  1   
1845 2294 2295  1   
1846 2295 2296  1   
1847 2295 2297  1   
1848 2295 2298  1   
1849 2299 2300  1   
1850 2300 2301  1   
1851 2300 2302  1   
1852 2300 2303  1   
1853 2304 2305  1   
1854 2305 2306  1   
1855 2305 2307  1   
1856 2305 2308  1   
1857 2309 2310  1   
1858 2310 2311  1   
1859 2310 2312  1   
1860 2310 2313  1   
1861 2314 2315  1   
1862 2315 2316  1   
1863 2315 2317  1   
1864 2315 2318  1   
1865 2319 2320  1   
1866 2320 2321  1   
1867 2320 2322  1   
1868 2320 2323  1   
1869 2324 2325  1   
1870 2325 2326  1   
1871 2325 2327  1   
1872 2325 2328  1   
1873 2329 2330  1   
1874 2330 2331  1   
1875 2330 2332  1   
1876 2330 2333  1   
1877 2334 2335  1   
1878 2335 2336  1   
1879 2335 2337  1   
1880 2335 2338  1   
1881 2339 2340  1   
1882 2340 2341  1   
1883 2340 2342  1   
1884 2340 2343  1   
1885 2344 2345  1   
1886 2345 2346  1   
1887 2345 2347  1   
1888 2345 2348  1   
1889 2349 2350  1   
1890 2350 2351  1   
1891 2350 2352  1   
1892 2350 2353  1   
1893 2354 2355  1   
1894 2355 2356  1   
1895 2355 2357  1   
1896 2355 2358  1   
1897 2359 2360  1   
1898 2360 2361  1   
1899 2360 2362  1   
1900 2360 2363  1   
1901 2364 2365  1   
1902 2365 2366  1   
1903 2365 2367  1   
1904 2365 2368  1   
1905 2369 2370  1   
1906 2370 2371  1   
1907 2370 2372  1   
1908 2370 2373  1   
1909 2374 2375  1   
1910 2375 2376  1   
1911 2375 2377  1   
1912 2375 2378  1   
1913 2379 2380  1   
1914 2380 2381  1   
1915 2380 2382  1   
1916 2380 2383  1   
1917 2384 2385  1   
1918 2385 2386  1   
1919 2385 2387  1   
1920 2385 2388  1   
1921 2389 2390  1   
1922 2390 2391  1   
1923 2390 2392  1   
1924 2390 2393  1   
1925 2394 2395  1   
1926 2395 2396  1   
1927 2395 2397  1   
1928 2395 2398  1   
1929 2399 2400  1   
1930 2400 2401  1   
1931 2400 2402  1   
1932 2400 2403  1   
1933 2404 2405  1   
1934 2405 2406  1   
1935 2405 2407  1   
1936 2405 2408  1   
1937 2409 2410  1   
1938 2410 2411  1   
1939 2410 2412  1   
1940 2410 2413  1   
1941 2414 2415  1   
1942 2415 2416  1   
1943 2415 2417  1   
1944 2415 2418  1   
1945 2419 2420  1   
1946 2420 2421  1   
1947 2420 2422  1   
1948 2420 2423  1   
1949 2424 2425  1   
1950 2425 2426  1   
1951 2425 2427  1   
1952 2425 2428  1   
1953 2429 2430  1   
1954 2430 2431  1   
1955 2430 2432  1   
1956 2430 2433  1   
1957 2434 2435  1   
1958 2435 2436  1   
1959 2435 2437  1   
1960 2435 2438  1   
1961 2439 2440  1   
1962 2440 2441  1   
1963 2440 2442  1   
1964 2440 2443  1   
1965 2444 2445  1   
1966 2445 2446  1   
1967 2445 2447  1   
1968 2445 2448  1   
1969 2449 2450  1   
1970 2450 2451  1   
1971 2450 2452  1   
1972 2450 2453  1   
1973 2454 2455  1   
1974 2455 2456  1   
1975 2455 2457  1   
1976 2455 2458  1   
1977 2459 2460  1   
1978 2460 2461  1   
1979 2460 2462  1   
1980 2460 2463  1   
1981 2464 2465  1   
1982 2465 2466  1   
1983 2465 2467  1   
1984 2465 2468  1   
1985 2469 2470  1   
1986 2470 2471  1   
1987 2470 2472  1   
1988 2470 2473  1   
1989 2474 2475  1   
1990 2475 2476  1   
1991 2475 2477  1   
1992 2475 2478  1   
1993 2479 2480  1   
1994 2480 2481  1   
1995 2480 2482  1   
1996 2480 2483  1   
1997 2484 2485  1   
1998 2485 2486  1   
1999 2485 2487  1   
2000 2485 2488  1   
2001 2489 2490  1   
2002 2490 2491  1   
2003 2490 2492  1   
2004 2490 2493  1   
2005 2494 2495  1   
2006 2495 2496  1   
2007 2495 2497  1   
2008 2495 2498  1   
2009 2499 2500  1   
2010 2500 2501  1   
2011 2500 2502  1   
2012 2500 2503  1   
2013 2504 2505  1   
2014 2505 2506  1   
2015 2505 2507  1   
2016 2505 2508  1   
2017 2509 2510  1   
2018 2510 2511  1   
2019 2510 2512  1   
2020 2510 2513  1   
2021 2514 2515  1   
2022 2515 2516  1   
2023 2515 2517  1   
2024 2515 2518  1   
2025 2519 2520  1   
2026 2520 2521  1   
2027 2520 2522  1   
2028 2520 2523  1   
2029 2524 2525  1   
2030 2525 2526  1   
2031 2525 2527  1   
2032 2525 2528  1   
2033 2529 2530  1   
2034 2530 2531  1   
2035 2530 2532  1   
2036 2530 2533  1   
2037 2534 2535  1   
2038 2535 2536  1   
2039 2535 2537  1   
2040 2535 2538  1   
2041 2539 2540  1   
2042 2540 2541  1   
2043 2540 2542  1   
2044 2540 2543  1   
2045 2544 2545  1   
2046 2545 2546  1   
2047 2545 2547  1   
2048 2545 2548  1   
2049 2549 2550  1   
2050 2550 2551  1   
2051 2550 2552  1   
2052 2550 2553  1   
2053 2554 2555  1   
2054 2555 2556  1   
2055 2555 2557  1   
2056 2555 2558  1   
2057 2559 2560  1   
2058 2560 2561  1   
2059 2560 2562  1   
2060 2560 2563  1   
2061 2564 2565  1   
2062 2565 2566  1   
2063 2565 2567  1   
2064 2565 2568  1   
2065 2569 2570  1   
2066 2570 2571  1   
2067 2570 2572  1   
2068 2570 2573  1   
2069 2574 2575  1   
2070 2575 2576  1   
2071 2575 2577  1   
2072 2575 2578  1   
2073 2579 2580  1   
2074 2580 2581  1   
2075 2580 2582  1   
2076 2580 2583  1   
2077 2584 2585  1   
2078 2585 2586  1   
2079 2585 2587  1   
2080 2585 2588  1   
2081 2589 2590  1   
2082 2590 2591  1   
2083 2590 2592  1   
2084 2590 2593  1   
2085 2594 2595  1   
2086 2595 2596  1   
2087 2595 2597  1   
2088 2595 2598  1   
2089 2599 2600  1   
2090 2600 2601  1   
2091 2600 2602  1   
2092 2600 2603  1   
2093 2604 2605  1   
2094 2605 2606  1   
2095 2605 2607  1   
2096 2605 2608  1   
2097 2609 2610  1   
2098 2610 2611  1   
2099 2610 2612  1   
2100 2610 2613  1   
2101 2614 2615  1   
2102 2615 2616  1   
2103 2615 2617  1   
2104 2615 2618  1   
2105 2619 2620  1   
2106 2620 2621  1   
2107 2620 2622  1   
2108 2620 2623  1   
2109 2624 2625  1   
2110 2625 2626  1   
2111 2625 2627  1   
2112 2625 2628  1   
2113 2629 2630  1   
2114 2630 2631  1   
2115 2630 2632  1   
2116 2630 2633  1   
2117 2634 2635  1   
2118 2635 2636  1   
2119 2635 2637  1   
2120 2635 2638  1   
2121 2639 2640  1   
2122 2640 2641  1   
2123 2640 2642  1   
2124 2640 2643  1   
2125 2644 2645  1   
2126 2645 2646  1   
2127 2645 2647  1   
2128 2645 2648  1   
2129 2649 2650  1   
2130 2650 2651  1   
2131 2650 2652  1   
2132 2650 2653  1   
2133 2654 2655  1   
2134 2655 2656  1   
2135 2655 2657  1   
2136 2655 2658  1   
2137 2659 2660  1   
2138 2660 2661  1   
2139 2660 2662  1   
2140 2660 2663  1   
2141 2664 2665  1   
2142 2665 2666  1   
2143 2665 2667  1   
2144 2665 2668  1   
2145 2669 2670  1   
2146 2670 2671  1   
2147 2670 2672  1   
2148 2670 2673  1   
2149 2674 2675  1   
2150 2675 2676  1   
2151 2675 2677  1   
2152 2675 2678  1   
2153 2679 2680  1   
2154 2680 2681  1   
2155 2680 2682  1   
2156 2680 2683  1   
2157 2684 2685  1   
2158 2685 2686  1   
2159 2685 2687  1   
2160 2685 2688  1   
2161 2689 2690  1   
2162 2690 2691  1   
2163 2690 2692  1   
2164 2690 2693  1   
2165 2694 2695  1   
2166 2695 2696  1   
2167 2695 2697  1   
2168 2695 2698  1   
2169 2699 2700  1   
2170 2700 2701  1   
2171 2700 2702  1   
2172 2700 2703  1   
2173 2704 2705  1   
2174 2705 2706  1   
2175 2705 2707  1   
2176 2705 2708  1   
2177 2709 2710  1   
2178 2710 2711  1   
2179 2710 2712  1   
2180 2710 2713  1   
2181 2714 2715  1   
2182 2715 2716  1   
2183 2715 2717  1   
2184 2715 2718  1   
2185 2719 2720  1   
2186 2720 2721  1   
2187 2720 2722  1   
2188 2720 2723  1   
2189 2724 2725  1   
2190 2725 2726  1   
2191 2725 2727  1   
2192 2725 2728  1   
2193 2729 2730  1   
2194 2730 2731  1   
2195 2730 2732  1   
2196 2730 2733  1   
2197 2734 2735  1   
2198 2735 2736  1   
2199 2735 2737  1   
2200 2735 2738  1   
2201 2739 2740  1   
2202 2740 2741  1   
2203 2740 2742  1   
2204 2740 2743  1   
2205 2744 2745  1   
2206 2745 2746  1   
2207 2745 2747  1   
2208 2745 2748  1   
2209 2749 2750  1   
2210 2750 2751  1   
2211 2750 2752  1   
2212 2750 2753  1   
2213 2754 2755  1   
2214 2755 2756  1   
2215 2755 2757  1   
2216 2755 2758  1   
2217 2759 2760  1   
2218 2760 2761  1   
2219 2760 2762  1   
2220 2760 2763  1   
2221 2764 2765  1   
2222 2765 2766  1   
2223 2765 2767  1   
2224 2765 2768  1   
2225 2769 2770  1   
2226 2770 2771  1   
2227 2770 2772  1   
2228 2770 2773  1   
2229 2774 2775  1   
2230 2775 2776  1   
2231 2775 2777  1   
2232 2775 2778  1   
2233 2779 2780  1   
2234 2780 2781  1   
2235 2780 2782  1   
2236 2780 2783  1   
2237 2784 2785  1   
2238 2785 2786  1   
2239 2785 2787  1   
2240 2785 2788  1   
2241 2789 2790  1   
2242 2790 2791  1   
2243 2790 2792  1   
2244 2790 2793  1   
2245 2794 2795  1   
2246 2795 2796  1   
2247 2795 2797  1   
2248 2795 2798  1   
2249 2799 2800  1   
2250 2800 2801  1   
2251 2800 2802  1   
2252 2800 2803  1   
2253 2804 2805  1   
2254 2805 2806  1   
2255 2805 2807  1   
2256 2805 2808  1   
2257 2809 2810  1   
2258 2810 2811  1   
2259 2810 2812  1   
2260 2810 2813  1   
2261 2814 2815  1   
2262 2815 2816  1   
2263 2815 2817  1   
2264 2815 2818  1   
2265 2819 2820  1   
2266 2820 2821  1   
2267 2820 2822  1   
2268 2820 2823  1   
2269 2824 2825  1   
2270 2825 2826  1   
2271 2825 2827  1   
2272 2825 2828  1   
2273 2829 2830  1   
2274 2830 2831  1   
2275 2830 2832  1   
2276 2830 2833  1   
2277 2834 2835  1   
2278 2835 2836  1   
2279 2835 2837  1   
2280 2835 2838  1   
2281 2839 2840  1   
2282 2840 2841  1   
2283 2840 2842  1   
2284 2840 2843  1   
2285 2844 2845  1   
2286 2845 2846  1   
2287 2845 2847  1   
2288 2845 2848  1   
2289 2849 2850  1   
2290 2850 2851  1   
2291 2850 2852  1   
2292 2850 2853  1   
2293 2854 2855  1   
2294 2855 2856  1   
2295 2855 2857  1   
2296 2855 2858  1   
2297 2859 2860  1   
2298 2860 2861  1   
2299 2860 2862  1   
2300 2860 2863  1   
2301 2864 2865  1   
2302 2865 2866  1   
2303 2865 2867  1   
2304 2865 2868  1   
2305 2869 2870  1   
2306 2870 2871  1   
2307 2870 2872  1   
2308 2870 2873  1   
2309 2874 2875  1   
2310 2875 2876  1   
2311 2875 2877  1   
2312 2875 2878  1   
2313 2879 2880  1   
2314 2880 2881  1   
2315 2880 2882  1   
2316 2880 2883  1   
2317 2884 2885  1   
2318 2885 2886  1   
2319 2885 2887  1   
2320 2885 2888  1   
2321 2889 2890  1   
2322 2890 2891  1   
2323 2890 2892  1   
2324 2890 2893  1   
2325 2894 2895  1   
2326 2895 2896  1   
2327 2895 2897  1   
2328 2895 2898  1   
2329 2899 2900  1   
2330 2900 2901  1   
2331 2900 2902  1   
2332 2900 2903  1   
2333 2904 2905  1   
2334 2905 2906  1   
2335 2905 2907  1   
2336 2905 2908  1   
2337 2909 2910  1   
2338 2910 2911  1   
2339 2910 2912  1   
2340 2910 2913  1   
2341 2914 2915  1   
2342 2915 2916  1   
2343 2915 2917  1   
2344 2915 2918  1   
2345 2919 2920  1   
2346 2920 2921  1   
2347 2920 2922  1   
2348 2920 2923  1   
2349 2924 2925  1   
2350 2925 2926  1   
2351 2925 2927  1   
2352 2925 2928  1   
2353 2929 2930  1   
2354 2930 2931  1   
2355 2930 2932  1   
2356 2930 2933  1   
2357 2934 2935  1   
2358 2935 2936  1   
2359 2935 2937  1   
2360 2935 2938  1   
2361 2939 2940  1   
2362 2940 2941  1   
2363 2940 2942  1   
2364 2940 2943  1   
2365 2944 2945  1   
2366 2945 2946  1   
2367 2945 2947  1   
2368 2945 2948  1   
2369 2949 2950  1   
2370 2950 2951  1   
2371 2950 2952  1   
2372 2950 2953  1   
2373 2954 2955  1   
2374 2955 2956  1   
2375 2955 2957  1   
2376 2955 2958  1   
2377 2959 2960  1   
2378 2960 2961  1   
2379 2960 2962  1   
2380 2960 2963  1   
2381 2964 2965  1   
2382 2965 2966  1   
2383 2965 2967  1   
2384 2965 2968  1   
2385 2969 2970  1   
2386 2970 2971  1   
2387 2970 2972  1   
2388 2970 2973  1   
2389 2974 2975  1   
2390 2975 2976  1   
2391 2975 2977  1   
2392 2975 2978  1   
2393 2979 2980  1   
2394 2980 2981  1   
2395 2980 2982  1   
2396 2980 2983  1   
2397 2984 2985  1   
2398 2985 2986  1   
2399 2985 2987  1   
2400 2985 2988  1   
2401 2989 2990  1   
2402 2990 2991  1   
2403 2990 2992  1   
2404 2990 2993  1   
2405 2994 2995  1   
2406 2995 2996  1   
2407 2995 2997  1   
2408 2995 2998  1   
2409 2999 3000  1   
2410 3000 3001  1   
2411 3000 3002  1   
2412 3000 3003  1   
2413 3004 3005  1   
2414 3005 3006  1   
2415 3005 3007  1   
2416 3005 3008  1   
2417 3009 3010  1   
2418 3010 3011  1   
2419 3010 3012  1   
2420 3010 3013  1   
2421 3014 3015  1   
2422 3015 3016  1   
2423 3015 3017  1   
2424 3015 3018  1   
2425 3019 3020  1   
2426 3020 3021  1   
2427 3020 3022  1   
2428 3020 3023  1   
2429 3024 3025  1   
2430 3025 3026  1   
2431 3025 3027  1   
2432 3025 3028  1   
2433 3029 3030  1   
2434 3030 3031  1   
2435 3030 3032  1   
2436 3030 3033  1   
2437 3034 3035  1   
2438 3035 3036  1   
2439 3035 3037  1   
2440 3035 3038  1   
2441 3039 3040  1   
2442 3040 3041  1   
2443 3040 3042  1   
2444 3040 3043  1   
2445 3044 3045  1   
2446 3045 3046  1   
2447 3045 3047  1   
2448 3045 3048  1   
2449 3049 3050  1   
2450 3050 3051  1   
2451 3050 3052  1   
2452 3050 3053  1   
2453 3054 3055  1   
2454 3055 3056  1   
2455 3055 3057  1   
2456 3055 3058  1   
@<TRIPOS>SUBSTRUCTURE
  1 ****   16 GROUP 4 Q1 **** 0
  2 CCL4   55 GROUP 4 Q2 **** 0
  3 CCL4   60 GROUP 4 Q2 **** 0
  4 CCL4   65 GROUP 4 Q2 **** 0
  5 CCL4   70 GROUP 4 Q2 **** 0
  6 CCL4   75 GROUP 4 Q2 **** 0
  7 CCL4   80 GROUP 4 Q2 **** 0
  8 CCL4   85 GROUP 4 Q2 **** 0
  9 CCL4   90 GROUP 4 Q2 **** 0
 10 CCL4   95 GROUP 4 Q2 **** 0
 11 CCL4  100 GROUP 4 Q2 **** 0
 12 CCL4  105 GROUP 4 Q2 **** 0
 13 CCL4  110 GROUP 4 Q2 **** 0
 14 CCL4  115 GROUP 4 Q2 **** 0
 15 CCL4  120 GROUP 4 Q2 **** 0
 16 CCL4  125 GROUP 4 Q2 **** 0
 17 CCL4  130 GROUP 4 Q2 **** 0
 18 CCL4  135 GROUP 4 Q2 **** 0
 19 CCL4  140 GROUP 4 Q2 **** 0
 20 CCL4  145 GROUP 4 Q2 **** 0
 21 CCL4  150 GROUP 4 Q2 **** 0
 22 CCL4  155 GROUP 4 Q2 **** 0
 23 CCL4  160 GROUP 4 Q2 **** 0
 24 CCL4  165 GROUP 4 Q2 **** 0
 25 CCL4  170 GROUP 4 Q2 **** 0
 26 CCL4  175 GROUP 4 Q2 **** 0
 27 CCL4  180 GROUP 4 Q2 **** 0
 28 CCL4  185 GROUP 4 Q2 **** 0
 29 CCL4  190 GROUP 4 Q2 **** 0
 30 CCL4  195 GROUP 4 Q2 **** 0
 31 CCL4  200 GROUP 4 Q2 **** 0
 32 CCL4  205 GROUP 4 Q2 **** 0
 33 CCL4  210 GROUP 4 Q2 **** 0
 34 CCL4  215 GROUP 4 Q2 **** 0
 35 CCL4  220 GROUP 4 Q2 **** 0
 36 CCL4  225 GROUP 4 Q2 **** 0
 37 CCL4  230 GROUP 4 Q2 **** 0
 38 CCL4  235 GROUP 4 Q2 **** 0
 39 CCL4  240 GROUP 4 Q2 **** 0
 40 CCL4  245 GROUP 4 Q2 **** 0
 41 CCL4  250 GROUP 4 Q2 **** 0
 42 CCL4  255 GROUP 4 Q2 **** 0
 43 CCL4  260 GROUP 4 Q2 **** 0
 44 CCL4  265 GROUP 4 Q2 **** 0
 45 CCL4  270 GROUP 4 Q2 **** 0
 46 CCL4  275 GROUP 4 Q2 **** 0
 47 CCL4  280 GROUP 4 Q2 **** 0
 48 CCL4  285 GROUP 4 Q2 **** 0
 49 CCL4  290 GROUP 4 Q2 **** 0
 50 CCL4  295 GROUP 4 Q2 **** 0
 51 CCL4  300 GROUP 4 Q2 **** 0
 52 CCL4  305 GROUP 4 Q2 **** 0
 53 CCL4  310 GROUP 4 Q2 **** 0
 54 CCL4  315 GROUP 4 Q2 **** 0
 55 CCL4  320 GROUP 4 Q2 **** 0
 56 CCL4  325 GROUP 4 Q2 **** 0
 57 CCL4  330 GROUP 4 Q2 **** 0
 58 CCL4  335 GROUP 4 Q2 **** 0
 59 CCL4  340 GROUP 4 Q2 **** 0
 60 CCL4  345 GROUP 4 Q2 **** 0
 61 CCL4  350 GROUP 4 Q2 **** 0
 62 CCL4  355 GROUP 4 Q2 **** 0
 63 CCL4  360 GROUP 4 Q2 **** 0
 64 CCL4  365 GROUP 4 Q2 **** 0
 65 CCL4  370 GROUP 4 Q2 **** 0
 66 CCL4  375 GROUP 4 Q2 **** 0
 67 CCL4  380 GROUP 4 Q2 **** 0
 68 CCL4  385 GROUP 4 Q2 **** 0
 69 CCL4  390 GROUP 4 Q2 **** 0
 70 CCL4  395 GROUP 4 Q2 **** 0
 71 CCL4  400 GROUP 4 Q2 **** 0
 72 CCL4  405 GROUP 4 Q2 **** 0
 73 CCL4  410 GROUP 4 Q2 **** 0
 74 CCL4  415 GROUP 4 Q2 **** 0
 75 CCL4  420 GROUP 4 Q2 **** 0
 76 CCL4  425 GROUP 4 Q2 **** 0
 77 CCL4  430 GROUP 4 Q2 **** 0
 78 CCL4  435 GROUP 4 Q2 **** 0
 79 CCL4  440 GROUP 4 Q2 **** 0
 80 CCL4  445 GROUP 4 Q2 **** 0
 81 CCL4  450 GROUP 4 Q2 **** 0
 82 CCL4  455 GROUP 4 Q2 **** 0
 83 CCL4  460 GROUP 4 Q2 **** 0
 84 CCL4  465 GROUP 4 Q2 **** 0
 85 CCL4  470 GROUP 4 Q2 **** 0
 86 CCL4  475 GROUP 4 Q2 **** 0
 87 CCL4  480 GROUP 4 Q2 **** 0
 88 CCL4  485 GROUP 4 Q2 **** 0
 89 CCL4  490 GROUP 4 Q2 **** 0
 90 CCL4  495 GROUP 4 Q2 **** 0
 91 CCL4  500 GROUP 4 Q2 **** 0
 92 CCL4  505 GROUP 4 Q2 **** 0
 93 CCL4  510 GROUP 4 Q2 **** 0
 94 CCL4  515 GROUP 4 Q2 **** 0
 95 CCL4  520 GROUP 4 Q2 **** 0
 96 CCL4  525 GROUP 4 Q2 **** 0
 97 CCL4  530 GROUP 4 Q2 **** 0
 98 CCL4  535 GROUP 4 Q2 **** 0
 99 CCL4  540 GROUP 4 Q2 **** 0
100 CCL4  545 GROUP 4 Q2 **** 0
101 CCL4  550 GROUP 4 Q2 **** 0
102 CCL4  555 GROUP 4 Q2 **** 0
103 CCL4  560 GROUP 4 Q2 **** 0
104 CCL4  565 GROUP 4 Q2 **** 0
105 CCL4  570 GROUP 4 Q2 **** 0
106 CCL4  575 GROUP 4 Q2 **** 0
107 CCL4  580 GROUP 4 Q2 **** 0
108 CCL4  585 GROUP 4 Q2 **** 0
109 CCL4  590 GROUP 4 Q2 **** 0
110 CCL4  595 GROUP 4 Q2 **** 0
111 CCL4  600 GROUP 4 Q2 **** 0
112 CCL4  605 GROUP 4 Q2 **** 0
113 CCL4  610 GROUP 4 Q2 **** 0
114 CCL4  615 GROUP 4 Q2 **** 0
115 CCL4  620 GROUP 4 Q2 **** 0
116 CCL4  625 GROUP 4 Q2 **** 0
117 CCL4  630 GROUP 4 Q2 **** 0
118 CCL4  635 GROUP 4 Q2 **** 0
119 CCL4  640 GROUP 4 Q2 **** 0
120 CCL4  645 GROUP 4 Q2 **** 0
121 CCL4  650 GROUP 4 Q2 **** 0
122 CCL4  655 GROUP 4 Q2 **** 0
123 CCL4  660 GROUP 4 Q2 **** 0
124 CCL4  665 GROUP 4 Q2 **** 0
125 CCL4  670 GROUP 4 Q2 **** 0
126 CCL4  675 GROUP 4 Q2 **** 0
127 CCL4  680 GROUP 4 Q2 **** 0
128 CCL4  685 GROUP 4 Q2 **** 0
129 CCL4  690 GROUP 4 Q2 **** 0
130 CCL4  695 GROUP 4 Q2 **** 0
131 CCL4  700 GROUP 4 Q2 **** 0
132 CCL4  705 GROUP 4 Q2 **** 0
133 CCL4  710 GROUP 4 Q2 **** 0
134 CCL4  715 GROUP 4 Q2 **** 0
135 CCL4  720 GROUP 4 Q2 **** 0
136 CCL4  725 GROUP 4 Q2 **** 0
137 CCL4  730 GROUP 4 Q2 **** 0
138 CCL4  735 GROUP 4 Q2 **** 0
139 CCL4  740 GROUP 4 Q2 **** 0
140 CCL4  745 GROUP 4 Q2 **** 0
141 CCL4  750 GROUP 4 Q2 **** 0
142 CCL4  755 GROUP 4 Q2 **** 0
143 CCL4  760 GROUP 4 Q2 **** 0
144 CCL4  765 GROUP 4 Q2 **** 0
145 CCL4  770 GROUP 4 Q2 **** 0
146 CCL4  775 GROUP 4 Q2 **** 0
147 CCL4  780 GROUP 4 Q2 **** 0
148 CCL4  785 GROUP 4 Q2 **** 0
149 CCL4  790 GROUP 4 Q2 **** 0
150 CCL4  795 GROUP 4 Q2 **** 0
151 CCL4  800 GROUP 4 Q2 **** 0
152 CCL4  805 GROUP 4 Q2 **** 0
153 CCL4  810 GROUP 4 Q2 **** 0
154 CCL4  815 GROUP 4 Q2 **** 0
155 CCL4  820 GROUP 4 Q2 **** 0
156 CCL4  825 GROUP 4 Q2 **** 0
157 CCL4  830 GROUP 4 Q2 **** 0
158 CCL4  835 GROUP 4 Q2 **** 0
159 CCL4  840 GROUP 4 Q2 **** 0
160 CCL4  845 GROUP 4 Q2 **** 0
161 CCL4  850 GROUP 4 Q2 **** 0
162 CCL4  855 GROUP 4 Q2 **** 0
163 CCL4  860 GROUP 4 Q2 **** 0
164 CCL4  865 GROUP 4 Q2 **** 0
165 CCL4  870 GROUP 4 Q2 **** 0
166 CCL4  875 GROUP 4 Q2 **** 0
167 CCL4  880 GROUP 4 Q2 **** 0
168 CCL4  885 GROUP 4 Q2 **** 0
169 CCL4  890 GROUP 4 Q2 **** 0
170 CCL4  895 GROUP 4 Q2 **** 0
171 CCL4  900 GROUP 4 Q2 **** 0
172 CCL4  905 GROUP 4 Q2 **** 0
173 CCL4  910 GROUP 4 Q2 **** 0
174 CCL4  915 GROUP 4 Q2 **** 0
175 CCL4  920 GROUP 4 Q2 **** 0
176 CCL4  925 GROUP 4 Q2 **** 0
177 CCL4  930 GROUP 4 Q2 **** 0
178 CCL4  935 GROUP 4 Q2 **** 0
179 CCL4  940 GROUP 4 Q2 **** 0
180 CCL4  945 GROUP 4 Q2 **** 0
181 CCL4  950 GROUP 4 Q2 **** 0
182 CCL4  955 GROUP 4 Q2 **** 0
183 CCL4  960 GROUP 4 Q2 **** 0
184 CCL4  965 GROUP 4 Q2 **** 0
185 CCL4  970 GROUP 4 Q2 **** 0
186 CCL4  975 GROUP 4 Q2 **** 0
187 CCL4  980 GROUP 4 Q2 **** 0
188 CCL4  985 GROUP 4 Q2 **** 0
189 CCL4  990 GROUP 4 Q2 **** 0
190 CCL4  995 GROUP 4 Q2 **** 0
191 CCL4 1000 GROUP 4 Q2 **** 0
192 CCL4 1005 GROUP 4 Q2 **** 0
193 CCL4 1010 GROUP 4 Q2 **** 0
194 CCL4 1015 GROUP 4 Q2 **** 0
195 CCL4 1020 GROUP 4 Q2 **** 0
196 CCL4 1025 GROUP 4 Q2 **** 0
197 CCL4 1030 GROUP 4 Q2 **** 0
198 CCL4 1035 GROUP 4 Q2 **** 0
199 CCL4 1040 GROUP 4 Q2 **** 0
200 CCL4 1045 GROUP 4 Q2 **** 0
201 CCL4 1050 GROUP 4 Q2 **** 0
202 CCL4 1055 GROUP 4 Q2 **** 0
203 CCL4 1060 GROUP 4 Q2 **** 0
204 CCL4 1065 GROUP 4 Q2 **** 0
205 CCL4 1070 GROUP 4 Q2 **** 0
206 CCL4 1075 GROUP 4 Q2 **** 0
207 CCL4 1080 GROUP 4 Q2 **** 0
208 CCL4 1085 GROUP 4 Q2 **** 0
209 CCL4 1090 GROUP 4 Q2 **** 0
210 CCL4 1095 GROUP 4 Q2 **** 0
211 CCL4 1100 GROUP 4 Q2 **** 0
212 CCL4 1105 GROUP 4 Q2 **** 0
213 CCL4 1110 GROUP 4 Q2 **** 0
214 CCL4 1115 GROUP 4 Q2 **** 0
215 CCL4 1120 GROUP 4 Q2 **** 0
216 CCL4 1125 GROUP 4 Q2 **** 0
217 CCL4 1130 GROUP 4 Q2 **** 0
218 CCL4 1135 GROUP 4 Q2 **** 0
219 CCL4 1140 GROUP 4 Q2 **** 0
220 CCL4 1145 GROUP 4 Q2 **** 0
221 CCL4 1150 GROUP 4 Q2 **** 0
222 CCL4 1155 GROUP 4 Q2 **** 0
223 CCL4 1160 GROUP 4 Q2 **** 0
224 CCL4 1165 GROUP 4 Q2 **** 0
225 CCL4 1170 GROUP 4 Q2 **** 0
226 CCL4 1175 GROUP 4 Q2 **** 0
227 CCL4 1180 GROUP 4 Q2 **** 0
228 CCL4 1185 GROUP 4 Q2 **** 0
229 CCL4 1190 GROUP 4 Q2 **** 0
230 CCL4 1195 GROUP 4 Q2 **** 0
231 CCL4 1200 GROUP 4 Q2 **** 0
232 CCL4 1205 GROUP 4 Q2 **** 0
233 CCL4 1210 GROUP 4 Q2 **** 0
234 CCL4 1215 GROUP 4 Q2 **** 0
235 CCL4 1220 GROUP 4 Q2 **** 0
236 CCL4 1225 GROUP 4 Q2 **** 0
237 CCL4 1230 GROUP 4 Q2 **** 0
238 CCL4 1235 GROUP 4 Q2 **** 0
239 CCL4 1240 GROUP 4 Q2 **** 0
240 CCL4 1245 GROUP 4 Q2 **** 0
241 CCL4 1250 GROUP 4 Q2 **** 0
242 CCL4 1255 GROUP 4 Q2 **** 0
243 CCL4 1260 GROUP 4 Q2 **** 0
244 CCL4 1265 GROUP 4 Q2 **** 0
245 CCL4 1270 GROUP 4 Q2 **** 0
246 CCL4 1275 GROUP 4 Q2 **** 0
247 CCL4 1280 GROUP 4 Q2 **** 0
248 CCL4 1285 GROUP 4 Q2 **** 0
249 CCL4 1290 GROUP 4 Q2 **** 0
250 CCL4 1295 GROUP 4 Q2 **** 0
251 CCL4 1300 GROUP 4 Q2 **** 0
252 CCL4 1305 GROUP 4 Q2 **** 0
253 CCL4 1310 GROUP 4 Q2 **** 0
254 CCL4 1315 GROUP 4 Q2 **** 0
255 CCL4 1320 GROUP 4 Q2 **** 0
256 CCL4 1325 GROUP 4 Q2 **** 0
257 CCL4 1330 GROUP 4 Q2 **** 0
258 CCL4 1335 GROUP 4 Q2 **** 0
259 CCL4 1340 GROUP 4 Q2 **** 0
260 CCL4 1345 GROUP 4 Q2 **** 0
261 CCL4 1350 GROUP 4 Q2 **** 0
262 CCL4 1355 GROUP 4 Q2 **** 0
263 CCL4 1360 GROUP 4 Q2 **** 0
264 CCL4 1365 GROUP 4 Q2 **** 0
265 CCL4 1370 GROUP 4 Q2 **** 0
266 CCL4 1375 GROUP 4 Q2 **** 0
267 CCL4 1380 GROUP 4 Q2 **** 0
268 CCL4 1385 GROUP 4 Q2 **** 0
269 CCL4 1390 GROUP 4 Q2 **** 0
270 CCL4 1395 GROUP 4 Q2 **** 0
271 CCL4 1400 GROUP 4 Q2 **** 0
272 CCL4 1405 GROUP 4 Q2 **** 0
273 CCL4 1410 GROUP 4 Q2 **** 0
274 CCL4 1415 GROUP 4 Q2 **** 0
275 CCL4 1420 GROUP 4 Q2 **** 0
276 CCL4 1425 GROUP 4 Q2 **** 0
277 CCL4 1430 GROUP 4 Q2 **** 0
278 CCL4 1435 GROUP 4 Q2 **** 0
279 CCL4 1440 GROUP 4 Q2 **** 0
280 CCL4 1445 GROUP 4 Q2 **** 0
281 CCL4 1450 GROUP 4 Q2 **** 0
282 CCL4 1455 GROUP 4 Q2 **** 0
283 CCL4 1460 GROUP 4 Q2 **** 0
284 CCL4 1465 GROUP 4 Q2 **** 0
285 CCL4 1470 GROUP 4 Q2 **** 0
286 CCL4 1475 GROUP 4 Q2 **** 0
287 CCL4 1480 GROUP 4 Q2 **** 0
288 CCL4 1485 GROUP 4 Q2 **** 0
289 CCL4 1490 GROUP 4 Q2 **** 0
290 CCL4 1495 GROUP 4 Q2 **** 0
291 CCL4 1500 GROUP 4 Q2 **** 0
292 CCL4 1505 GROUP 4 Q2 **** 0
293 CCL4 1510 GROUP 4 Q2 **** 0
294 CCL4 1515 GROUP 4 Q2 **** 0
295 CCL4 1520 GROUP 4 Q2 **** 0
296 CCL4 1525 GROUP 4 Q2 **** 0
297 CCL4 1530 GROUP 4 Q2 **** 0
298 CCL4 1535 GROUP 4 Q2 **** 0
299 CCL4 1540 GROUP 4 Q2 **** 0
300 CCL4 1545 GROUP 4 Q2 **** 0
301 CCL4 1550 GROUP 4 Q2 **** 0
302 CCL4 1555 GROUP 4 Q2 **** 0
303 CCL4 1560 GROUP 4 Q2 **** 0
304 CCL4 1565 GROUP 4 Q2 **** 0
305 CCL4 1570 GROUP 4 Q2 **** 0
306 CCL4 1575 GROUP 4 Q2 **** 0
307 CCL4 1580 GROUP 4 Q2 **** 0
308 CCL4 1585 GROUP 4 Q2 **** 0
309 CCL4 1590 GROUP 4 Q2 **** 0
310 CCL4 1595 GROUP 4 Q2 **** 0
311 CCL4 1600 GROUP 4 Q2 **** 0
312 CCL4 1605 GROUP 4 Q2 **** 0
313 CCL4 1610 GROUP 4 Q2 **** 0
314 CCL4 1615 GROUP 4 Q2 **** 0
315 CCL4 1620 GROUP 4 Q2 **** 0
316 CCL4 1625 GROUP 4 Q2 **** 0
317 CCL4 1630 GROUP 4 Q2 **** 0
318 CCL4 1635 GROUP 4 Q2 **** 0
319 CCL4 1640 GROUP 4 Q2 **** 0
320 CCL4 1645 GROUP 4 Q2 **** 0
321 CCL4 1650 GROUP 4 Q2 **** 0
322 CCL4 1655 GROUP 4 Q2 **** 0
323 CCL4 1660 GROUP 4 Q2 **** 0
324 CCL4 1665 GROUP 4 Q2 **** 0
325 CCL4 1670 GROUP 4 Q2 **** 0
326 CCL4 1675 GROUP 4 Q2 **** 0
327 CCL4 1680 GROUP 4 Q2 **** 0
328 CCL4 1685 GROUP 4 Q2 **** 0
329 CCL4 1690 GROUP 4 Q2 **** 0
330 CCL4 1695 GROUP 4 Q2 **** 0
331 CCL4 1700 GROUP 4 Q2 **** 0
332 CCL4 1705 GROUP 4 Q2 **** 0
333 CCL4 1710 GROUP 4 Q2 **** 0
334 CCL4 1715 GROUP 4 Q2 **** 0
335 CCL4 1720 GROUP 4 Q2 **** 0
336 CCL4 1725 GROUP 4 Q2 **** 0
337 CCL4 1730 GROUP 4 Q2 **** 0
338 CCL4 1735 GROUP 4 Q2 **** 0
339 CCL4 1740 GROUP 4 Q2 **** 0
340 CCL4 1745 GROUP 4 Q2 **** 0
341 CCL4 1750 GROUP 4 Q2 **** 0
342 CCL4 1755 GROUP 4 Q2 **** 0
343 CCL4 1760 GROUP 4 Q2 **** 0
344 CCL4 1765 GROUP 4 Q2 **** 0
345 CCL4 1770 GROUP 4 Q2 **** 0
346 CCL4 1775 GROUP 4 Q2 **** 0
347 CCL4 1780 GROUP 4 Q2 **** 0
348 CCL4 1785 GROUP 4 Q2 **** 0
349 CCL4 1790 GROUP 4 Q2 **** 0
350 CCL4 1795 GROUP 4 Q2 **** 0
351 CCL4 1800 GROUP 4 Q2 **** 0
352 CCL4 1805 GROUP 4 Q2 **** 0
353 CCL4 1810 GROUP 4 Q2 **** 0
354 CCL4 1815 GROUP 4 Q2 **** 0
355 CCL4 1820 GROUP 4 Q2 **** 0
356 CCL4 1825 GROUP 4 Q2 **** 0
357 CCL4 1830 GROUP 4 Q2 **** 0
358 CCL4 1835 GROUP 4 Q2 **** 0
359 CCL4 1840 GROUP 4 Q2 **** 0
360 CCL4 1845 GROUP 4 Q2 **** 0
361 CCL4 1850 GROUP 4 Q2 **** 0
362 CCL4 1855 GROUP 4 Q2 **** 0
363 CCL4 1860 GROUP 4 Q2 **** 0
364 CCL4 1865 GROUP 4 Q2 **** 0
365 CCL4 1870 GROUP 4 Q2 **** 0
366 CCL4 1875 GROUP 4 Q2 **** 0
367 CCL4 1880 GROUP 4 Q2 **** 0
368 CCL4 1885 GROUP 4 Q2 **** 0
369 CCL4 1890 GROUP 4 Q2 **** 0
370 CCL4 1895 GROUP 4 Q2 **** 0
371 CCL4 1900 GROUP 4 Q2 **** 0
372 CCL4 1905 GROUP 4 Q2 **** 0
373 CCL4 1910 GROUP 4 Q2 **** 0
374 CCL4 1915 GROUP 4 Q2 **** 0
375 CCL4 1920 GROUP 4 Q2 **** 0
376 CCL4 1925 GROUP 4 Q2 **** 0
377 CCL4 1930 GROUP 4 Q2 **** 0
378 CCL4 1935 GROUP 4 Q2 **** 0
379 CCL4 1940 GROUP 4 Q2 **** 0
380 CCL4 1945 GROUP 4 Q2 **** 0
381 CCL4 1950 GROUP 4 Q2 **** 0
382 CCL4 1955 GROUP 4 Q2 **** 0
383 CCL4 1960 GROUP 4 Q2 **** 0
384 CCL4 1965 GROUP 4 Q2 **** 0
385 CCL4 1970 GROUP 4 Q2 **** 0
386 CCL4 1975 GROUP 4 Q2 **** 0
387 CCL4 1980 GROUP 4 Q2 **** 0
388 CCL4 1985 GROUP 4 Q2 **** 0
389 CCL4 1990 GROUP 4 Q2 **** 0
390 CCL4 1995 GROUP 4 Q2 **** 0
391 CCL4 2000 GROUP 4 Q2 **** 0
392 CCL4 2005 GROUP 4 Q2 **** 0
393 CCL4 2010 GROUP 4 Q2 **** 0
394 CCL4 2015 GROUP 4 Q2 **** 0
395 CCL4 2020 GROUP 4 Q2 **** 0
396 CCL4 2025 GROUP 4 Q2 **** 0
397 CCL4 2030 GROUP 4 Q2 **** 0
398 CCL4 2035 GROUP 4 Q2 **** 0
399 CCL4 2040 GROUP 4 Q2 **** 0
400 CCL4 2045 GROUP 4 Q2 **** 0
401 CCL4 2050 GROUP 4 Q2 **** 0
402 CCL4 2055 GROUP 4 Q2 **** 0
403 CCL4 2060 GROUP 4 Q2 **** 0
404 CCL4 2065 GROUP 4 Q2 **** 0
405 CCL4 2070 GROUP 4 Q2 **** 0
406 CCL4 2075 GROUP 4 Q2 **** 0
407 CCL4 2080 GROUP 4 Q2 **** 0
408 CCL4 2085 GROUP 4 Q2 **** 0
409 CCL4 2090 GROUP 4 Q2 **** 0
410 CCL4 2095 GROUP 4 Q2 **** 0
411 CCL4 2100 GROUP 4 Q2 **** 0
412 CCL4 2105 GROUP 4 Q2 **** 0
413 CCL4 2110 GROUP 4 Q2 **** 0
414 CCL4 2115 GROUP 4 Q2 **** 0
415 CCL4 2120 GROUP 4 Q2 **** 0
416 CCL4 2125 GROUP 4 Q2 **** 0
417 CCL4 2130 GROUP 4 Q2 **** 0
418 CCL4 2135 GROUP 4 Q2 **** 0
419 CCL4 2140 GROUP 4 Q2 **** 0
420 CCL4 2145 GROUP 4 Q2 **** 0
421 CCL4 2150 GROUP 4 Q2 **** 0
422 CCL4 2155 GROUP 4 Q2 **** 0
423 CCL4 2160 GROUP 4 Q2 **** 0
424 CCL4 2165 GROUP 4 Q2 **** 0
425 CCL4 2170 GROUP 4 Q2 **** 0
426 CCL4 2175 GROUP 4 Q2 **** 0
427 CCL4 2180 GROUP 4 Q2 **** 0
428 CCL4 2185 GROUP 4 Q2 **** 0
429 CCL4 2190 GROUP 4 Q2 **** 0
430 CCL4 2195 GROUP 4 Q2 **** 0
431 CCL4 2200 GROUP 4 Q2 **** 0
432 CCL4 2205 GROUP 4 Q2 **** 0
433 CCL4 2210 GROUP 4 Q2 **** 0
434 CCL4 2215 GROUP 4 Q2 **** 0
435 CCL4 2220 GROUP 4 Q2 **** 0
436 CCL4 2225 GROUP 4 Q2 **** 0
437 CCL4 2230 GROUP 4 Q2 **** 0
438 CCL4 2235 GROUP 4 Q2 **** 0
439 CCL4 2240 GROUP 4 Q2 **** 0
440 CCL4 2245 GROUP 4 Q2 **** 0
441 CCL4 2250 GROUP 4 Q2 **** 0
442 CCL4 2255 GROUP 4 Q2 **** 0
443 CCL4 2260 GROUP 4 Q2 **** 0
444 CCL4 2265 GROUP 4 Q2 **** 0
445 CCL4 2270 GROUP 4 Q2 **** 0
446 CCL4 2275 GROUP 4 Q2 **** 0
447 CCL4 2280 GROUP 4 Q2 **** 0
448 CCL4 2285 GROUP 4 Q2 **** 0
449 CCL4 2290 GROUP 4 Q2 **** 0
450 CCL4 2295 GROUP 4 Q2 **** 0
451 CCL4 2300 GROUP 4 Q2 **** 0
452 CCL4 2305 GROUP 4 Q2 **** 0
453 CCL4 2310 GROUP 4 Q2 **** 0
454 CCL4 2315 GROUP 4 Q2 **** 0
455 CCL4 2320 GROUP 4 Q2 **** 0
456 CCL4 2325 GROUP 4 Q2 **** 0
457 CCL4 2330 GROUP 4 Q2 **** 0
458 CCL4 2335 GROUP 4 Q2 **** 0
459 CCL4 2340 GROUP 4 Q2 **** 0
460 CCL4 2345 GROUP 4 Q2 **** 0
461 CCL4 2350 GROUP 4 Q2 **** 0
462 CCL4 2355 GROUP 4 Q2 **** 0
463 CCL4 2360 GROUP 4 Q2 **** 0
464 CCL4 2365 GROUP 4 Q2 **** 0
465 CCL4 2370 GROUP 4 Q2 **** 0
466 CCL4 2375 GROUP 4 Q2 **** 0
467 CCL4 2380 GROUP 4 Q2 **** 0
468 CCL4 2385 GROUP 4 Q2 **** 0
469 CCL4 2390 GROUP 4 Q2 **** 0
470 CCL4 2395 GROUP 4 Q2 **** 0
471 CCL4 2400 GROUP 4 Q2 **** 0
472 CCL4 2405 GROUP 4 Q2 **** 0
473 CCL4 2410 GROUP 4 Q2 **** 0
474 CCL4 2415 GROUP 4 Q2 **** 0
475 CCL4 2420 GROUP 4 Q2 **** 0
476 CCL4 2425 GROUP 4 Q2 **** 0
477 CCL4 2430 GROUP 4 Q2 **** 0
478 CCL4 2435 GROUP 4 Q2 **** 0
479 CCL4 2440 GROUP 4 Q2 **** 0
480 CCL4 2445 GROUP 4 Q2 **** 0
481 CCL4 2450 GROUP 4 Q2 **** 0
482 CCL4 2455 GROUP 4 Q2 **** 0
483 CCL4 2460 GROUP 4 Q2 **** 0
484 CCL4 2465 GROUP 4 Q2 **** 0
485 CCL4 2470 GROUP 4 Q2 **** 0
486 CCL4 2475 GROUP 4 Q2 **** 0
487 CCL4 2480 GROUP 4 Q2 **** 0
488 CCL4 2485 GROUP 4 Q2 **** 0
489 CCL4 2490 GROUP 4 Q2 **** 0
490 CCL4 2495 GROUP 4 Q2 **** 0
491 CCL4 2500 GROUP 4 Q2 **** 0
492 CCL4 2505 GROUP 4 Q2 **** 0
493 CCL4 2510 GROUP 4 Q2 **** 0
494 CCL4 2515 GROUP 4 Q2 **** 0
495 CCL4 2520 GROUP 4 Q2 **** 0
496 CCL4 2525 GROUP 4 Q2 **** 0
497 CCL4 2530 GROUP 4 Q2 **** 0
498 CCL4 2535 GROUP 4 Q2 **** 0
499 CCL4 2540 GROUP 4 Q2 **** 0
500 CCL4 2545 GROUP 4 Q2 **** 0
501 CCL4 2550 GROUP 4 Q2 **** 0
502 CCL4 2555 GROUP 4 Q2 **** 0
503 CCL4 2560 GROUP 4 Q2 **** 0
504 CCL4 2565 GROUP 4 Q2 **** 0
505 CCL4 2570 GROUP 4 Q2 **** 0
506 CCL4 2575 GROUP 4 Q2 **** 0
507 CCL4 2580 GROUP 4 Q2 **** 0
508 CCL4 2585 GROUP 4 Q2 **** 0
509 CCL4 2590 GROUP 4 Q2 **** 0
510 CCL4 2595 GROUP 4 Q2 **** 0
511 CCL4 2600 GROUP 4 Q2 **** 0
512 CCL4 2605 GROUP 4 Q2 **** 0
513 CCL4 2610 GROUP 4 Q2 **** 0
514 CCL4 2615 GROUP 4 Q2 **** 0
515 CCL4 2620 GROUP 4 Q2 **** 0
516 CCL4 2625 GROUP 4 Q2 **** 0
517 CCL4 2630 GROUP 4 Q2 **** 0
518 CCL4 2635 GROUP 4 Q2 **** 0
519 CCL4 2640 GROUP 4 Q2 **** 0
520 CCL4 2645 GROUP 4 Q2 **** 0
521 CCL4 2650 GROUP 4 Q2 **** 0
522 CCL4 2655 GROUP 4 Q2 **** 0
523 CCL4 2660 GROUP 4 Q2 **** 0
524 CCL4 2665 GROUP 4 Q2 **** 0
525 CCL4 2670 GROUP 4 Q2 **** 0
526 CCL4 2675 GROUP 4 Q2 **** 0
527 CCL4 2680 GROUP 4 Q2 **** 0
528 CCL4 2685 GROUP 4 Q2 **** 0
529 CCL4 2690 GROUP 4 Q2 **** 0
530 CCL4 2695 GROUP 4 Q2 **** 0
531 CCL4 2700 GROUP 4 Q2 **** 0
532 CCL4 2705 GROUP 4 Q2 **** 0
533 CCL4 2710 GROUP 4 Q2 **** 0
534 CCL4 2715 GROUP 4 Q2 **** 0
535 CCL4 2720 GROUP 4 Q2 **** 0
536 CCL4 2725 GROUP 4 Q2 **** 0
537 CCL4 2730 GROUP 4 Q2 **** 0
538 CCL4 2735 GROUP 4 Q2 **** 0
539 CCL4 2740 GROUP 4 Q2 **** 0
540 CCL4 2745 GROUP 4 Q2 **** 0
541 CCL4 2750 GROUP 4 Q2 **** 0
542 CCL4 2755 GROUP 4 Q2 **** 0
543 CCL4 2760 GROUP 4 Q2 **** 0
544 CCL4 2765 GROUP 4 Q2 **** 0
545 CCL4 2770 GROUP 4 Q2 **** 0
546 CCL4 2775 GROUP 4 Q2 **** 0
547 CCL4 2780 GROUP 4 Q2 **** 0
548 CCL4 2785 GROUP 4 Q2 **** 0
549 CCL4 2790 GROUP 4 Q2 **** 0
550 CCL4 2795 GROUP 4 Q2 **** 0
551 CCL4 2800 GROUP 4 Q2 **** 0
552 CCL4 2805 GROUP 4 Q2 **** 0
553 CCL4 2810 GROUP 4 Q2 **** 0
554 CCL4 2815 GROUP 4 Q2 **** 0
555 CCL4 2820 GROUP 4 Q2 **** 0
556 CCL4 2825 GROUP 4 Q2 **** 0
557 CCL4 2830 GROUP 4 Q2 **** 0
558 CCL4 2835 GROUP 4 Q2 **** 0
559 CCL4 2840 GROUP 4 Q2 **** 0
560 CCL4 2845 GROUP 4 Q2 **** 0
561 CCL4 2850 GROUP 4 Q2 **** 0
562 CCL4 2855 GROUP 4 Q2 **** 0
563 CCL4 2860 GROUP 4 Q2 **** 0
564 CCL4 2865 GROUP 4 Q2 **** 0
565 CCL4 2870 GROUP 4 Q2 **** 0
566 CCL4 2875 GROUP 4 Q2 **** 0
567 CCL4 2880 GROUP 4 Q2 **** 0
568 CCL4 2885 GROUP 4 Q2 **** 0
569 CCL4 2890 GROUP 4 Q2 **** 0
570 CCL4 2895 GROUP 4 Q2 **** 0
571 CCL4 2900 GROUP 4 Q2 **** 0
572 CCL4 2905 GROUP 4 Q2 **** 0
573 CCL4 2910 GROUP 4 Q2 **** 0
574 CCL4 2915 GROUP 4 Q2 **** 0
575 CCL4 2920 GROUP 4 Q2 **** 0
576 CCL4 2925 GROUP 4 Q2 **** 0
577 CCL4 2930 GROUP 4 Q2 **** 0
578 CCL4 2935 GROUP 4 Q2 **** 0
579 CCL4 2940 GROUP 4 Q2 **** 0
580 CCL4 2945 GROUP 4 Q2 **** 0
581 CCL4 2950 GROUP 4 Q2 **** 0
582 CCL4 2955 GROUP 4 Q2 **** 0
583 CCL4 2960 GROUP 4 Q2 **** 0
584 CCL4 2965 GROUP 4 Q2 **** 0
585 CCL4 2970 GROUP 4 Q2 **** 0
586 CCL4 2975 GROUP 4 Q2 **** 0
587 CCL4 2980 GROUP 4 Q2 **** 0
588 CCL4 2985 GROUP 4 Q2 **** 0
589 CCL4 2990 GROUP 4 Q2 **** 0
590 CCL4 2995 GROUP 4 Q2 **** 0
591 CCL4 3000 GROUP 4 Q2 **** 0
592 CCL4 3005 GROUP 4 Q2 **** 0
593 CCL4 3010 GROUP 4 Q2 **** 0
594 CCL4 3015 GROUP 4 Q2 **** 0
595 CCL4 3020 GROUP 4 Q2 **** 0
596 CCL4 3025 GROUP 4 Q2 **** 0
597 CCL4 3030 GROUP 4 Q2 **** 0
598 CCL4 3035 GROUP 4 Q2 **** 0
599 CCL4 3040 GROUP 4 Q2 **** 0
600 CCL4 3045 GROUP 4 Q2 **** 0
601 CCL4 3050 GROUP 4 Q2 **** 0
602 CCL4 3055 GROUP 4 Q2 **** 0

# MOE 2020.09 (io_trps.svl 2020.11)
