@<TRIPOS>MOLECULE
xlinker
58 62 1 0 0 
SMALL
USER_CHARGES


@<TRIPOS>ATOM
  1 C        1.1573    -0.0712    -0.0878 C.ar  1 <1>   0.0000 
  2 C        1.8208     0.2591     1.1612 C.2   1 <1>   0.5000 
  3 O1       1.1169     0.5708     2.1293 O.2   1 <1>  -0.5000 
  4 C        0.0192     0.6644    -0.4912 C.ar  1 <1>  -0.1150 
  5 H       -0.3660     1.4533     0.1395 H     1 <1>   0.1150 
  6 C       -0.6315     0.3735    -1.7063 C.ar  1 <1>  -0.1150 
  7 H       -1.5072     0.9343    -1.9976 H     1 <1>   0.1150 
  8 C       -0.1534    -0.6611    -2.5302 C.ar  1 <1>  -0.1150 
  9 H       -0.6588    -0.8904    -3.4572 H     1 <1>   0.1150 
 10 C        0.9712    -1.4089    -2.1340 C.ar  1 <1>  -0.1150 
 11 H        1.3299    -2.2174    -2.7549 H     1 <1>   0.1150 
 12 C        1.6173    -1.1225    -0.9156 C.ar  1 <1>  -0.1150 
 13 H        2.4687    -1.7212    -0.6242 H     1 <1>   0.1150 
 14 C        6.0836     0.7742     1.5386 C.ar  1 <1>   0.2225 
 15 O        7.4026     1.1593     1.5882 O.3   1 <1>  -0.4450 
 16 C        5.4848     0.6903     0.2693 C.ar  1 <1>  -0.1150 
 17 H        6.0899     0.7828    -0.6212 H     1 <1>   0.1150 
 18 C        4.0945     0.5190     0.1397 C.ar  1 <1>  -0.1150 
 19 H        3.6771     0.5085    -0.8553 H     1 <1>   0.1150 
 20 C        3.2693     0.3732     1.2792 C.ar  1 <1>   0.0000 
 21 C        3.8817     0.4181     2.5539 C.ar  1 <1>  -0.1150 
 22 H        3.2842     0.2969     3.4460 H     1 <1>   0.1150 
 23 C        5.2686     0.6373     2.6846 C.ar  1 <1>  -0.1150 
 24 H        5.6933     0.7014     3.6734 H     1 <1>   0.1150 
 25 C       10.1914    -0.0704     4.4417 C.ar  1 <1>   0.2225 
 26 O       11.2790    -0.3214     5.2415 O.3   1 <1>  -0.4450 
 27 C        9.9905    -0.8448     3.2804 C.ar  1 <1>  -0.1150 
 28 H       10.6287    -1.6941     3.0857 H     1 <1>   0.1150 
 29 C        8.9866    -0.4907     2.3552 C.ar  1 <1>  -0.1150 
 30 H        8.8551    -1.0674     1.4501 H     1 <1>   0.1150 
 31 C        8.1836     0.6434     2.5891 C.ar  1 <1>   0.2225 
 32 C        8.3389     1.3726     3.7823 C.ar  1 <1>  -0.1150 
 33 H        7.7138     2.2314     3.9662 H     1 <1>   0.1150 
 34 C        9.3287     1.0130     4.7136 C.ar  1 <1>  -0.1150 
 35 H        9.4488     1.6003     5.6126 H     1 <1>   0.1150 
 36 C       13.8136     3.0309     5.0117 C.ar  1 <1>   0.0000 
 37 C       14.4841     4.3084     4.8378 C.2   1 <1>   0.5000 
 38 O3      14.3958     4.8560     3.7337 O.2   1 <1>  -0.5000 
 39 C       13.7225     2.1293     3.9253 C.ar  1 <1>  -0.1150 
 40 H       14.2633     2.3346     3.0116 H     1 <1>   0.1150 
 41 C       12.9322     0.9657     4.0201 C.ar  1 <1>  -0.1150 
 42 H       12.8746     0.2845     3.1852 H     1 <1>   0.1150 
 43 C       12.1899     0.7066     5.1908 C.ar  1 <1>   0.2225 
 44 C       12.3148     1.5738     6.2922 C.ar  1 <1>  -0.1150 
 45 H       11.7598     1.3767     7.1979 H     1 <1>   0.1150 
 46 C       13.1327     2.7175     6.2104 C.ar  1 <1>  -0.1150 
 47 H       13.1957     3.3775     7.0639 H     1 <1>   0.1150 
 48 C       16.7316     6.3208     7.8899 C.ar  1 <1>  -0.1150 
 49 H       17.3042     6.8372     8.6472 H     1 <1>   0.1150 
 50 C       16.6582     4.9152     7.8867 C.ar  1 <1>  -0.1150 
 51 H       17.1786     4.3448     8.6429 H     1 <1>   0.1150 
 52 C       15.9081     4.2472     6.8976 C.ar  1 <1>  -0.1150 
 53 H       15.8778     3.1673     6.9119 H     1 <1>   0.1150 
 54 C       15.2206     4.9775     5.8986 C.ar  1 <1>   0.0000 
 55 C       15.3053     6.3901     5.9142 C.ar  1 <1>  -0.1150 
 56 H       14.7969     6.9718     5.1580 H     1 <1>   0.1150 
 57 C       16.0536     7.0587     6.9026 C.ar  1 <1>  -0.1150 
 58 H       16.1073     8.1385     6.9015 H     1 <1>   0.1150 
@<TRIPOS>BOND
  1   1   2  1   
  2   1   4  ar  
  3   1  12  ar  
  4   2   3  2   
  5   2  20  1   
  6   4   5  1   
  7   4   6  ar  
  8   6   7  1   
  9   6   8  ar  
 10   8   9  1   
 11   8  10  ar  
 12  10  11  1   
 13  10  12  ar  
 14  12  13  1   
 15  14  15  1   
 16  14  16  ar  
 17  14  23  ar  
 18  15  31  1   
 19  16  17  1   
 20  16  18  ar  
 21  18  19  1   
 22  18  20  ar  
 23  20  21  ar  
 24  21  22  1   
 25  21  23  ar  
 26  23  24  1   
 27  25  26  1   
 28  25  27  ar  
 29  25  34  ar  
 30  26  43  1   
 31  27  28  1   
 32  27  29  ar  
 33  29  30  1   
 34  29  31  ar  
 35  31  32  ar  
 36  32  33  1   
 37  32  34  ar  
 38  34  35  1   
 39  36  37  1   
 40  36  39  ar  
 41  36  46  ar  
 42  37  38  2   
 43  37  54  1   
 44  39  40  1   
 45  39  41  ar  
 46  41  42  1   
 47  41  43  ar  
 48  43  44  ar  
 49  44  45  1   
 50  44  46  ar  
 51  46  47  1   
 52  48  49  1   
 53  48  50  ar  
 54  48  57  ar  
 55  50  51  1   
 56  50  52  ar  
 57  52  53  1   
 58  52  54  ar  
 59  54  55  ar  
 60  55  56  1   
 61  55  57  ar  
 62  57  58  1   
@<TRIPOS>SUBSTRUCTURE
  1 ****  32 GROUP 4 **** **** 0

# MOE 2020.09 (io_trps.svl 2020.11)
@<TRIPOS>MOLECULE
MOH
4602 3835 767 0 0 
SMALL
USER_CHARGES


@<TRIPOS>ATOM
   1 O       21.3941    -1.5761    -4.7084 O.3     1 MOH  -0.6830 
   2 C       21.1708    -1.3843    -6.0925 C.3     1 MOH   0.0850 
   3 H       21.6234    -0.4499    -6.4273 H       1 MOH   0.0600 
   4 H       20.1028    -1.3490    -6.3137 H       1 MOH   0.0600 
   5 H       21.6120    -2.1994    -6.6668 H       1 MOH   0.0600 
   6 H       22.3507    -1.5858    -4.5611 H       1 MOH   0.4180 
   7 O       28.4606    -4.5906    -9.0718 O.3     2 MOH  -0.6830 
   8 C       29.1602    -4.0581    -7.9649 C.3     2 MOH   0.0850 
   9 H       29.0982    -2.9699    -7.9634 H       2 MOH   0.0600 
  10 H       30.2128    -4.3408    -7.9979 H       2 MOH   0.0600 
  11 H       28.7342    -4.4254    -7.0303 H       2 MOH   0.0600 
  12 H       27.5536    -4.2744    -9.0180 H       2 MOH   0.4180 
  13 O       27.1102    18.8737    20.4466 O.3     3 MOH  -0.6830 
  14 C       26.2489    19.9920    20.5107 C.3     3 MOH   0.0850 
  15 H       25.8029    20.0730    21.5022 H       3 MOH   0.0600 
  16 H       25.4454    19.8974    19.7797 H       3 MOH   0.0600 
  17 H       26.7958    20.9118    20.3049 H       3 MOH   0.0600 
  18 H       26.5934    18.0887    20.6556 H       3 MOH   0.4180 
  19 O       25.2083    -9.1211     2.3575 O.3     4 MOH  -0.6830 
  20 C       25.1179   -10.0814     3.3932 C.3     4 MOH   0.0850 
  21 H       25.7197    -9.7791     4.2513 H       4 MOH   0.0600 
  22 H       25.4744   -11.0524     3.0481 H       4 MOH   0.0600 
  23 H       24.0833   -10.1934     3.7211 H       4 MOH   0.0600 
  24 H       24.6582    -9.4290     1.6238 H       4 MOH   0.4180 
  25 O       -8.3258   -10.0959     1.3637 O.3     5 MOH  -0.6830 
  26 C       -8.9416   -10.4674     0.1506 C.3     5 MOH   0.0850 
  27 H       -9.7259    -9.7578    -0.1120 H       5 MOH   0.0600 
  28 H       -9.3804   -11.4629     0.2190 H       5 MOH   0.0600 
  29 H       -8.2071   -10.4645    -0.6525 H       5 MOH   0.0600 
  30 H       -7.9135    -9.2311     1.2206 H       5 MOH   0.4180 
  31 O       -9.0521   -12.7175    21.3726 O.3     6 MOH  -0.6830 
  32 C      -10.1379   -12.8368    22.2690 C.3     6 MOH   0.0850 
  33 H       -9.8771   -12.4204    23.2429 H       6 MOH   0.0600 
  34 H      -11.0019   -12.2942    21.8837 H       6 MOH   0.0600 
  35 H      -10.4168   -13.8826    22.4030 H       6 MOH   0.0600 
  36 H       -8.8549   -11.7781    21.2845 H       6 MOH   0.4180 
  37 O       25.4910    -7.9448    22.6336 O.3     7 MOH  -0.6830 
  38 C       24.5085    -8.7275    21.9796 C.3     7 MOH   0.0850 
  39 H       23.5483    -8.2103    21.9723 H       7 MOH   0.0600 
  40 H       24.3764    -9.6800    22.4924 H       7 MOH   0.0600 
  41 H       24.7950    -8.9359    20.9480 H       7 MOH   0.0600 
  42 H       25.2184    -7.8408    23.5505 H       7 MOH   0.4180 
  43 O       31.2015     0.5096    22.4842 O.3     8 MOH  -0.6830 
  44 C       32.0969     1.5966    22.3354 C.3     8 MOH   0.0850 
  45 H       32.5362     1.8681    23.2962 H       8 MOH   0.0600 
  46 H       31.5776     2.4688    21.9379 H       8 MOH   0.0600 
  47 H       32.9073     1.3405    21.6518 H       8 MOH   0.0600 
  48 H       30.7861     0.3450    21.6471 H       8 MOH   0.4180 
  49 O        9.2718   -12.1929    -3.6657 O.3     9 MOH  -0.6830 
  50 C       10.1409   -11.4317    -2.8491 C.3     9 MOH   0.0850 
  51 H       10.1579   -11.8423    -1.8406 H       9 MOH   0.0600 
  52 H        9.8037   -10.3957    -2.7913 H       9 MOH   0.0600 
  53 H       11.1566   -11.4434    -3.2415 H       9 MOH   0.0600 
  54 H        8.4188   -12.2026    -3.2062 H       9 MOH   0.4180 
  55 O        4.0270    -1.4421     6.2995 O.3    10 MOH  -0.6830 
  56 C        4.6596    -0.1836     6.4332 C.3    10 MOH   0.0850 
  57 H        5.7427    -0.2880     6.3562 H      10 MOH   0.0600 
  58 H        4.4355     0.2494     7.4092 H      10 MOH   0.0600 
  59 H        4.3185     0.5088     5.6634 H      10 MOH   0.0600 
  60 H        4.2172    -1.9254     7.1134 H      10 MOH   0.4180 
  61 O       -5.2203     0.6169     0.9266 O.3    11 MOH  -0.6830 
  62 C       -6.2263     1.4328     1.4972 C.3    11 MOH   0.0850 
  63 H       -7.1380     1.3997     0.8992 H      11 MOH   0.0600 
  64 H       -5.8925     2.4684     1.5562 H      11 MOH   0.0600 
  65 H       -6.4759     1.0907     2.5025 H      11 MOH   0.0600 
  66 H       -5.5723    -0.2842     0.9088 H      11 MOH   0.4180 
  67 O       28.1409    20.4646    -1.6106 O.3    12 MOH  -0.6830 
  68 C       28.9196    21.4380    -2.2855 C.3    12 MOH   0.0850 
  69 H       29.9034    21.5296    -1.8240 H      12 MOH   0.0600 
  70 H       28.4384    22.4159    -2.2481 H      12 MOH   0.0600 
  71 H       29.0621    21.1657    -3.3322 H      12 MOH   0.0600 
  72 H       27.2769    20.4472    -2.0024 H      12 MOH   0.4180 
  73 O      -10.1978    -1.5163    -1.2591 O.3    13 MOH  -0.6830 
  74 C       -9.0356    -1.9306    -0.5639 C.3    13 MOH   0.0850 
  75 H       -9.0592    -3.0011    -0.3625 H      13 MOH   0.0600 
  76 H       -8.9552    -1.4106     0.3909 H      13 MOH   0.0600 
  77 H       -8.1388    -1.7087    -1.1438 H      13 MOH   0.0600 
  78 H      -10.1848    -0.5536    -1.2821 H      13 MOH   0.4180 
  79 O        6.6988   -15.0641   -10.2987 O.3    14 MOH  -0.6830 
  80 C        7.6929   -15.9477    -9.8172 C.3    14 MOH   0.0850 
  81 H        7.4488   -16.9784   -10.0771 H      14 MOH   0.0600 
  82 H        7.7810   -15.8783    -8.7323 H      14 MOH   0.0600 
  83 H        8.6613   -15.7059   -10.2572 H      14 MOH   0.0600 
  84 H        6.6496   -15.1739   -11.2559 H      14 MOH   0.4180 
  85 O       -6.1657    -7.1529    -3.8604 O.3    15 MOH  -0.6830 
  86 C       -6.3955    -8.4050    -3.2421 C.3    15 MOH   0.0850 
  87 H       -7.1061    -8.3112    -2.4203 H      15 MOH   0.0600 
  88 H       -5.4659    -8.8121    -2.8425 H      15 MOH   0.0600 
  89 H       -6.8015    -9.1187    -3.9599 H      15 MOH   0.0600 
  90 H       -5.8801    -6.5240    -3.1880 H      15 MOH   0.4180 
  91 O       -3.5022   -13.6896    -6.6965 O.3    16 MOH  -0.6830 
  92 C       -2.1513   -13.6329    -7.1079 C.3    16 MOH   0.0850 
  93 H       -2.0666   -13.1239    -8.0686 H      16 MOH   0.0600 
  94 H       -1.7389   -14.6371    -7.2126 H      16 MOH   0.0600 
  95 H       -1.5517   -13.0899    -6.3781 H      16 MOH   0.0600 
  96 H       -3.9975   -14.1674    -7.3768 H      16 MOH   0.4180 
  97 O       -4.2435   -12.0427    -4.6684 O.3    17 MOH  -0.6830 
  98 C       -3.0934   -11.3072    -4.3039 C.3    17 MOH   0.0850 
  99 H       -3.3289   -10.5907    -3.5180 H      17 MOH   0.0600 
 100 H       -2.7032   -10.7606    -5.1628 H      17 MOH   0.0600 
 101 H       -2.3128   -11.9774    -3.9417 H      17 MOH   0.0600 
 102 H       -3.9875   -12.6240    -5.4010 H      17 MOH   0.4180 
 103 O        0.6077   -12.8172   -13.7611 O.3    18 MOH  -0.6830 
 104 C        0.6982   -12.7660   -12.3499 C.3    18 MOH   0.0850 
 105 H        0.8597   -11.7420   -12.0116 H      18 MOH   0.0600 
 106 H        1.5287   -13.3779   -11.9963 H      18 MOH   0.0600 
 107 H       -0.2205   -13.1350   -11.8924 H      18 MOH   0.0600 
 108 H        0.4454   -13.7327   -14.0234 H      18 MOH   0.4180 
 109 O       -8.4657   -17.3799    -4.1065 O.3    19 MOH  -0.6830 
 110 C       -7.6163   -18.2881    -3.4318 C.3    19 MOH   0.0850 
 111 H       -7.4112   -17.9418    -2.4180 H      19 MOH   0.0600 
 112 H       -6.6667   -18.3866    -3.9588 H      19 MOH   0.0600 
 113 H       -8.0780   -19.2742    -3.3683 H      19 MOH   0.0600 
 114 H       -8.0113   -16.5308    -4.1537 H      19 MOH   0.4180 
 115 O      -10.1305    -9.5833   -16.3745 O.3    20 MOH  -0.6830 
 116 C      -11.1610    -8.6923   -16.7578 C.3    20 MOH   0.0850 
 117 H      -11.7570    -9.1286   -17.5599 H      20 MOH   0.0600 
 118 H      -10.7423    -7.7523   -17.1200 H      20 MOH   0.0600 
 119 H      -11.8234    -8.4731   -15.9200 H      20 MOH   0.0600 
 120 H       -9.5975    -9.7551   -17.1578 H      20 MOH   0.4180 
 121 O      -11.7301     8.2792   -12.7158 O.3    21 MOH  -0.6830 
 122 C      -12.8054     8.1357   -11.8054 C.3    21 MOH   0.0850 
 123 H      -12.4591     8.2824   -10.7815 H      21 MOH   0.0600 
 124 H      -13.2468     7.1411   -11.8792 H      21 MOH   0.0600 
 125 H      -13.5832     8.8720   -12.0096 H      21 MOH   0.0600 
 126 H      -11.3437     9.1530   -12.5705 H      21 MOH   0.4180 
 127 O       -0.0253   -15.2979   -14.8135 O.3    22 MOH  -0.6830 
 128 C       -1.2926   -14.8880   -15.2961 C.3    22 MOH   0.0850 
 129 H       -1.7289   -14.1183   -14.6584 H      22 MOH   0.0600 
 130 H       -1.9816   -15.7325   -15.3339 H      22 MOH   0.0600 
 131 H       -1.1968   -14.4836   -16.3041 H      22 MOH   0.0600 
 132 H        0.2768   -15.9975   -15.3996 H      22 MOH   0.4180 
 133 O       30.5827   -15.9595     5.0225 O.3    23 MOH  -0.6830 
 134 C       29.4436   -15.2823     5.5196 C.3    23 MOH   0.0850 
 135 H       28.6654   -15.9931     5.7986 H      23 MOH   0.0600 
 136 H       29.0361   -14.6071     4.7664 H      23 MOH   0.0600 
 137 H       29.6973   -14.6944     6.4017 H      23 MOH   0.0600 
 138 H       31.2323   -15.3053     4.7597 H      23 MOH   0.4180 
 139 O       -9.6106    -9.8446    -2.8407 O.3    24 MOH  -0.6830 
 140 C      -11.0003    -9.6202    -2.9622 C.3    24 MOH   0.0850 
 141 H      -11.4337    -9.3442    -2.0007 H      24 MOH   0.0600 
 142 H      -11.5010   -10.5200    -3.3203 H      24 MOH   0.0600 
 143 H      -11.1941    -8.8160    -3.6728 H      24 MOH   0.0600 
 144 H       -9.2847   -10.0941    -3.7135 H      24 MOH   0.4180 
 145 O       27.2753    -0.1863    -7.1534 O.3    25 MOH  -0.6830 
 146 C       27.1959    -1.2365    -6.2096 C.3    25 MOH   0.0850 
 147 H       26.7583    -0.8771    -5.2776 H      25 MOH   0.0600 
 148 H       28.1863    -1.6379    -5.9907 H      25 MOH   0.0600 
 149 H       26.5715    -2.0458    -6.5911 H      25 MOH   0.0600 
 150 H       26.3895     0.1661    -7.2700 H      25 MOH   0.4180 
 151 O        2.6233     6.2881    -6.7122 O.3    26 MOH  -0.6830 
 152 C        1.3811     5.9073    -6.1432 C.3    26 MOH   0.0850 
 153 H        1.0763     4.9267    -6.5123 H      26 MOH   0.0600 
 154 H        0.6041     6.6238    -6.4130 H      26 MOH   0.0600 
 155 H        1.4403     5.8612    -5.0552 H      26 MOH   0.0600 
 156 H        2.4658     6.3686    -7.6652 H      26 MOH   0.4180 
 157 O       -3.3724    22.9096     5.2038 O.3    27 MOH  -0.6830 
 158 C       -3.8662    22.7980     6.5254 C.3    27 MOH   0.0850 
 159 H       -3.0806    22.4848     7.2135 H      27 MOH   0.0600 
 160 H       -4.2552    23.7589     6.8611 H      27 MOH   0.0600 
 161 H       -4.6761    22.0692     6.5738 H      27 MOH   0.0600 
 162 H       -4.0967    23.2426     4.6614 H      27 MOH   0.4180 
 163 O        6.5981   -15.2873   -13.0820 O.3    28 MOH  -0.6830 
 164 C        6.3556   -13.9155   -13.3472 C.3    28 MOH   0.0850 
 165 H        7.0308   -13.2848   -12.7672 H      28 MOH   0.0600 
 166 H        5.3310   -13.6476   -13.0853 H      28 MOH   0.0600 
 167 H        6.5085   -13.6940   -14.4043 H      28 MOH   0.0600 
 168 H        5.9818   -15.8043   -13.6194 H      28 MOH   0.4180 
 169 O       -6.2212    -1.8851     1.0350 O.3    29 MOH  -0.6830 
 170 C       -5.3854    -3.0163     1.1943 C.3    29 MOH   0.0850 
 171 H       -4.9251    -3.0196     2.1828 H      29 MOH   0.0600 
 172 H       -4.5884    -3.0137     0.4510 H      29 MOH   0.0600 
 173 H       -5.9574    -3.9372     1.0799 H      29 MOH   0.0600 
 174 H       -6.8648    -1.8803     1.7582 H      29 MOH   0.4180 
 175 O      -10.4962   -11.4872   -10.2522 O.3    30 MOH  -0.6830 
 176 C      -11.0370   -11.3710    -8.9519 C.3    30 MOH   0.0850 
 177 H      -10.5551   -10.5560    -8.4115 H      30 MOH   0.0600 
 178 H      -10.8892   -12.2945    -8.3924 H      30 MOH   0.0600 
 179 H      -12.1057   -11.1661    -8.9930 H      30 MOH   0.0600 
 180 H       -9.5378   -11.4934   -10.1746 H      30 MOH   0.4180 
 181 O       -8.6564    -9.9734    21.2680 O.3    31 MOH  -0.6830 
 182 C       -7.2909    -9.6330    21.1132 C.3    31 MOH   0.0850 
 183 H       -7.1034    -8.6287    21.4924 H      31 MOH   0.0600 
 184 H       -7.0063    -9.6547    20.0607 H      31 MOH   0.0600 
 185 H       -6.6502   -10.3281    21.6550 H      31 MOH   0.0600 
 186 H       -9.1689    -9.3252    20.7577 H      31 MOH   0.4180 
 187 O        4.9982   -16.8298   -14.6824 O.3    32 MOH  -0.6830 
 188 C        3.5962   -16.6417   -14.6826 C.3    32 MOH   0.0850 
 189 H        3.1470   -17.0925   -13.7969 H      32 MOH   0.0600 
 190 H        3.1532   -17.1044   -15.5645 H      32 MOH   0.0600 
 191 H        3.3457   -15.5802   -14.6892 H      32 MOH   0.0600 
 192 H        5.1730   -17.7801   -14.6978 H      32 MOH   0.4180 
 193 O       28.6152   -14.5192    -6.2298 O.3    33 MOH  -0.6830 
 194 C       29.4762   -14.7158    -5.1259 C.3    33 MOH   0.0850 
 195 H       30.4885   -14.9248    -5.4707 H      33 MOH   0.0600 
 196 H       29.1417   -15.5603    -4.5223 H      33 MOH   0.0600 
 197 H       29.5051   -13.8287    -4.4931 H      33 MOH   0.0600 
 198 H       28.5715   -15.3491    -6.7157 H      33 MOH   0.4180 
 199 O       -0.5430   -17.1195    -8.0729 O.3    34 MOH  -0.6830 
 200 C        0.2031   -18.0394    -8.8450 C.3    34 MOH   0.0850 
 201 H        0.3727   -18.9580    -8.2821 H      34 MOH   0.0600 
 202 H        1.1712   -17.6196    -9.1199 H      34 MOH   0.0600 
 203 H       -0.3366   -18.2933    -9.7583 H      34 MOH   0.0600 
 204 H       -1.3882   -17.5423    -7.8685 H      34 MOH   0.4180 
 205 O        4.7592     1.4379   -10.2181 O.3    35 MOH  -0.6830 
 206 C        5.6373     1.1263    -9.1497 C.3    35 MOH   0.0850 
 207 H        5.1072     1.1350    -8.1964 H      35 MOH   0.0600 
 208 H        6.4475     1.8541    -9.0920 H      35 MOH   0.0600 
 209 H        6.0792     0.1398    -9.2922 H      35 MOH   0.0600 
 210 H        4.0258     0.8040   -10.2105 H      35 MOH   0.4180 
 211 O       26.8585    -3.4598     5.3277 O.3    36 MOH  -0.6830 
 212 C       27.6328    -4.6396     5.4250 C.3    36 MOH   0.0850 
 213 H       27.7186    -4.9637     6.4624 H      36 MOH   0.0600 
 214 H       28.6363    -4.4680     5.0343 H      36 MOH   0.0600 
 215 H       27.1780    -5.4463     4.8484 H      36 MOH   0.0600 
 216 H       26.7804    -3.2465     4.3898 H      36 MOH   0.4180 
 217 O        8.2014   -16.6386    -5.8476 O.3    37 MOH  -0.6830 
 218 C        6.8909   -16.1093    -5.8956 C.3    37 MOH   0.0850 
 219 H        6.4361   -16.1116    -4.9045 H      37 MOH   0.0600 
 220 H        6.2600   -16.6941    -6.5656 H      37 MOH   0.0600 
 221 H        6.9115   -15.0817    -6.2577 H      37 MOH   0.0600 
 222 H        8.7242   -16.0857    -5.2586 H      37 MOH   0.4180 
 223 O      -10.4858     5.8603   -12.3631 O.3    38 MOH  -0.6830 
 224 C      -10.4365     5.2333   -13.6282 C.3    38 MOH   0.0850 
 225 H      -11.4406     5.1206   -14.0384 H      38 MOH   0.0600 
 226 H       -9.9799     4.2458   -13.5565 H      38 MOH   0.0600 
 227 H       -9.8522     5.8343   -14.3257 H      38 MOH   0.0600 
 228 H      -10.8800     6.7342   -12.4930 H      38 MOH   0.4180 
 229 O        1.5972   -10.8887    -9.0686 O.3    39 MOH  -0.6830 
 230 C        2.0898   -10.1685    -7.9555 C.3    39 MOH   0.0850 
 231 H        1.5021    -9.2652    -7.7909 H      39 MOH   0.0600 
 232 H        3.1264    -9.8736    -8.1140 H      39 MOH   0.0600 
 233 H        2.0455   -10.7751    -7.0514 H      39 MOH   0.0600 
 234 H        1.5584   -10.2863    -9.8205 H      39 MOH   0.4180 
 235 O      -11.0391    -6.6903   -10.8036 O.3    40 MOH  -0.6830 
 236 C      -10.9919    -7.7844    -9.9083 C.3    40 MOH   0.0850 
 237 H      -11.9150    -7.8515    -9.3321 H      40 MOH   0.0600 
 238 H      -10.1652    -7.6693    -9.2080 H      40 MOH   0.0600 
 239 H      -10.8542    -8.7212   -10.4471 H      40 MOH   0.0600 
 240 H      -11.1702    -5.8973   -10.2727 H      40 MOH   0.4180 
 241 O       -2.9278   -18.4204    -7.5941 O.3    41 MOH  -0.6830 
 242 C       -3.5095   -17.6196    -6.5812 C.3    41 MOH   0.0850 
 243 H       -2.8725   -16.7676    -6.3413 H      41 MOH   0.0600 
 244 H       -3.6597   -18.2038    -5.6727 H      41 MOH   0.0600 
 245 H       -4.4784   -17.2389    -6.9051 H      41 MOH   0.0600 
 246 H       -3.5523   -19.1272    -7.7993 H      41 MOH   0.4180 
 247 O        3.7688   -14.7148    -6.2499 O.3    42 MOH  -0.6830 
 248 C        4.3366   -13.6228    -6.9450 C.3    42 MOH   0.0850 
 249 H        3.6505   -12.7754    -6.9545 H      42 MOH   0.0600 
 250 H        4.5517   -13.9014    -7.9773 H      42 MOH   0.0600 
 251 H        5.2654   -13.3042    -6.4724 H      42 MOH   0.0600 
 252 H        2.9361   -14.9369    -6.6787 H      42 MOH   0.4180 
 253 O       16.8276    -1.3757    -9.3265 O.3    43 MOH  -0.6830 
 254 C       15.9999    -2.4846    -9.0266 C.3    43 MOH   0.0850 
 255 H       16.5694    -3.2772    -8.5421 H      43 MOH   0.0600 
 256 H       15.5563    -2.8886    -9.9351 H      43 MOH   0.0600 
 257 H       15.1894    -2.1916    -8.3584 H      43 MOH   0.0600 
 258 H       16.9296    -0.8652    -8.5107 H      43 MOH   0.4180 
 259 O       12.8452    -9.3341   -11.6866 O.3    44 MOH  -0.6830 
 260 C       13.2672    -9.4497   -13.0339 C.3    44 MOH   0.0850 
 261 H       12.4602    -9.1907   -13.7201 H      44 MOH   0.0600 
 262 H       13.5872   -10.4696   -13.2515 H      44 MOH   0.0600 
 263 H       14.1092    -8.7847   -13.2285 H      44 MOH   0.0600 
 264 H       13.5905    -9.5941   -11.1297 H      44 MOH   0.4180 
 265 O       24.9886    -5.2515    -0.7967 O.3    45 MOH  -0.6830 
 266 C       25.7379    -6.2345    -0.1068 C.3    45 MOH   0.0850 
 267 H       25.6326    -6.1099     0.9716 H      45 MOH   0.0600 
 268 H       26.7971    -6.1601    -0.3551 H      45 MOH   0.0600 
 269 H       25.3923    -7.2363    -0.3663 H      45 MOH   0.0600 
 270 H       24.0862    -5.3312    -0.5125 H      45 MOH   0.4180 
 271 O       25.4091   -11.7039    -3.8976 O.3    46 MOH  -0.6830 
 272 C       26.4188   -12.4625    -4.5383 C.3    46 MOH   0.0850 
 273 H       27.1630   -11.8102    -4.9962 H      46 MOH   0.0600 
 274 H       25.9944   -13.0903    -5.3223 H      46 MOH   0.0600 
 275 H       26.9264   -13.1097    -3.8228 H      46 MOH   0.0600 
 276 H       24.7627   -12.3122    -3.5230 H      46 MOH   0.4180 
 277 O       -9.8864    19.1187    -0.2002 O.3    47 MOH  -0.6830 
 278 C      -10.3914    18.4652     0.9503 C.3    47 MOH   0.0850 
 279 H      -10.8573    19.1808     1.6290 H      47 MOH   0.0600 
 280 H       -9.5902    17.9577     1.4895 H      47 MOH   0.0600 
 281 H      -11.1398    17.7217     0.6742 H      47 MOH   0.0600 
 282 H      -10.6233    19.5465    -0.6534 H      47 MOH   0.4180 
 283 O       26.8024   -13.5664     7.4303 O.3    48 MOH  -0.6830 
 284 C       27.4000   -13.6072     8.7104 C.3    48 MOH   0.0850 
 285 H       28.4569   -13.3507     8.6474 H      48 MOH   0.0600 
 286 H       27.3147   -14.6049     9.1417 H      48 MOH   0.0600 
 287 H       26.9160   -12.9008     9.3854 H      48 MOH   0.0600 
 288 H       25.8754   -13.8030     7.5280 H      48 MOH   0.4180 
 289 O       -4.2180   -13.7209    -0.5029 O.3    49 MOH  -0.6830 
 290 C       -4.6727   -14.9809    -0.0478 C.3    49 MOH   0.0850 
 291 H       -4.0664   -15.3319     0.7886 H      49 MOH   0.0600 
 292 H       -4.6132   -15.7190    -0.8487 H      49 MOH   0.0600 
 293 H       -5.7100   -14.9168     0.2834 H      49 MOH   0.0600 
 294 H       -4.7751   -13.4607    -1.2456 H      49 MOH   0.4180 
 295 O       29.2503    17.4748     4.1381 O.3    50 MOH  -0.6830 
 296 C       28.1096    17.7135     4.9358 C.3    50 MOH   0.0850 
 297 H       27.3562    18.2571     4.3652 H      50 MOH   0.0600 
 298 H       28.3726    18.3034     5.8146 H      50 MOH   0.0600 
 299 H       27.6752    16.7713     5.2725 H      50 MOH   0.0600 
 300 H       29.8940    17.0084     4.6757 H      50 MOH   0.4180 
 301 O        0.9749     9.1272    -1.3588 O.3    51 MOH  -0.6830 
 302 C        2.3174     8.6870    -1.4079 C.3    51 MOH   0.0850 
 303 H        2.8878     9.2702    -2.1313 H      51 MOH   0.0600 
 304 H        2.3624     7.6360    -1.6939 H      51 MOH   0.0600 
 305 H        2.7928     8.7895    -0.4323 H      51 MOH   0.0600 
 306 H        0.5386     8.6351    -0.6501 H      51 MOH   0.4180 
 307 O        5.0834    -2.5328     3.9686 O.3    52 MOH  -0.6830 
 308 C        6.4941    -2.4564     3.9420 C.3    52 MOH   0.0850 
 309 H        6.9289    -3.2006     4.6072 H      52 MOH   0.0600 
 310 H        6.8297    -1.4730     4.2716 H      52 MOH   0.0600 
 311 H        6.8745    -2.6299     2.9350 H      52 MOH   0.0600 
 312 H        4.7834    -2.1748     4.8124 H      52 MOH   0.4180 
 313 O       -9.4497     4.7995    -7.5619 O.3    53 MOH  -0.6830 
 314 C       -9.0760     6.1563    -7.4069 C.3    53 MOH   0.0850 
 315 H       -8.5727     6.5127    -8.3060 H      53 MOH   0.0600 
 316 H       -8.3987     6.2827    -6.5621 H      53 MOH   0.0600 
 317 H       -9.9514     6.7835    -7.2374 H      53 MOH   0.0600 
 318 H       -9.9867     4.7471    -8.3631 H      53 MOH   0.4180 
 319 O       25.4582     0.2603    -2.5474 O.3    54 MOH  -0.6830 
 320 C       26.5363    -0.4428    -1.9544 C.3    54 MOH   0.0850 
 321 H       27.1604    -0.9166    -2.7131 H      54 MOH   0.0600 
 322 H       26.1671    -1.2165    -1.2797 H      54 MOH   0.0600 
 323 H       27.1622     0.2340    -1.3729 H      54 MOH   0.0600 
 324 H       25.0395     0.7789    -1.8464 H      54 MOH   0.4180 
 325 O        0.6286   -17.2043   -16.7848 O.3    55 MOH  -0.6830 
 326 C        1.1711   -16.2911   -17.7259 C.3    55 MOH   0.0850 
 327 H        1.8056   -15.5531   -17.2344 H      55 MOH   0.0600 
 328 H        0.3773   -15.7551   -18.2491 H      55 MOH   0.0600 
 329 H        1.7726   -16.8131   -18.4719 H      55 MOH   0.0600 
 330 H        0.0547   -17.7933   -17.2675 H      55 MOH   0.4180 
 331 O       10.9567    20.6281    -2.0908 O.3    56 MOH  -0.6830 
 332 C       11.3503    21.5077    -3.1311 C.3    56 MOH   0.0850 
 333 H       10.6799    21.4195    -3.9870 H      56 MOH   0.0600 
 334 H       12.3606    21.2832    -3.4709 H      56 MOH   0.0600 
 335 H       11.3335    22.5429    -2.7886 H      56 MOH   0.0600 
 336 H       11.0389    19.7163    -2.4147 H      56 MOH   0.4180 
 337 O       -0.1441   -10.6896   -15.2409 O.3    57 MOH  -0.6830 
 338 C       -0.9570   -11.1819   -16.2925 C.3    57 MOH   0.0850 
 339 H       -1.8665   -11.6369   -15.8965 H      57 MOH   0.0600 
 340 H       -0.4259   -11.9386   -16.8712 H      57 MOH   0.0600 
 341 H       -1.2448   -10.3724   -16.9641 H      57 MOH   0.0600 
 342 H        0.1212   -11.4551   -14.7049 H      57 MOH   0.4180 
 343 O       -8.5235    -8.5221   -14.3708 O.3    58 MOH  -0.6830 
 344 C       -9.2207    -7.8875   -13.3176 C.3    58 MOH   0.0850 
 345 H      -10.0063    -7.2387   -13.7061 H      58 MOH   0.0600 
 346 H       -8.5419    -7.2803   -12.7186 H      58 MOH   0.0600 
 347 H       -9.6767    -8.6271   -12.6604 H      58 MOH   0.0600 
 348 H       -9.1578    -8.9347   -14.9657 H      58 MOH   0.4180 
 349 O       -7.4269   -14.0384    -9.2376 O.3    59 MOH  -0.6830 
 350 C       -8.6997   -14.5393    -8.8752 C.3    59 MOH   0.0850 
 351 H       -9.1067   -13.9818    -8.0313 H      59 MOH   0.0600 
 352 H       -8.6337   -15.5892    -8.5889 H      59 MOH   0.0600 
 353 H       -9.3981   -14.4525    -9.7088 H      59 MOH   0.0600 
 354 H       -7.5464   -13.1344    -9.5495 H      59 MOH   0.4180 
 355 O       27.0068    -7.7746    -6.1856 O.3    60 MOH  -0.6830 
 356 C       26.0936    -8.5185    -5.4027 C.3    60 MOH   0.0850 
 357 H       25.5425    -7.8608    -4.7299 H      60 MOH   0.0600 
 358 H       26.6115    -9.2687    -4.8053 H      60 MOH   0.0600 
 359 H       25.3756    -9.0303    -6.0430 H      60 MOH   0.0600 
 360 H       26.4897    -7.1671    -6.7322 H      60 MOH   0.4180 
 361 O        5.2023     8.0692    23.8831 O.3    61 MOH  -0.6830 
 362 C        6.3714     8.8570    23.9314 C.3    61 MOH   0.0850 
 363 H        6.1166     9.8960    24.1311 H      61 MOH   0.0600 
 364 H        6.9057     8.8105    22.9822 H      61 MOH   0.0600 
 365 H        7.0381     8.5040    24.7190 H      61 MOH   0.0600 
 366 H        5.4770     7.1650    23.6999 H      61 MOH   0.4180 
 367 O       -2.0713    -8.7700   -14.5405 O.3    62 MOH  -0.6830 
 368 C       -1.5775    -7.4460   -14.4590 C.3    62 MOH   0.0850 
 369 H       -1.0523    -7.1737   -15.3757 H      62 MOH   0.0600 
 370 H       -0.8840    -7.3448   -13.6230 H      62 MOH   0.0600 
 371 H       -2.3956    -6.7397   -14.3113 H      62 MOH   0.0600 
 372 H       -1.3299    -9.3615   -14.7030 H      62 MOH   0.4180 
 373 O       -7.7168   -11.3705   -10.0220 O.3    63 MOH  -0.6830 
 374 C       -7.4481   -10.8214   -11.3004 C.3    63 MOH   0.0850 
 375 H       -6.3880   -10.9136   -11.5409 H      63 MOH   0.0600 
 376 H       -7.7086    -9.7621   -11.3227 H      63 MOH   0.0600 
 377 H       -8.0231   -11.3313   -12.0744 H      63 MOH   0.0600 
 378 H       -7.1916   -10.8616    -9.3827 H      63 MOH   0.4180 
 379 O       -7.9605     4.9425    22.8119 O.3    64 MOH  -0.6830 
 380 C       -7.3189     4.8994    24.0704 C.3    64 MOH   0.0850 
 381 H       -6.2396     4.8506    23.9366 H      64 MOH   0.0600 
 382 H       -7.6359     4.0251    24.6395 H      64 MOH   0.0600 
 383 H       -7.5475     5.7909    24.6542 H      64 MOH   0.0600 
 384 H       -8.9104     5.0218    22.9520 H      64 MOH   0.4180 
 385 O       -7.2842    -5.7328    21.9116 O.3    65 MOH  -0.6830 
 386 C       -7.8460    -6.0868    23.1596 C.3    65 MOH   0.0850 
 387 H       -7.1381    -5.8914    23.9656 H      65 MOH   0.0600 
 388 H       -8.0997    -7.1470    23.1797 H      65 MOH   0.0600 
 389 H       -8.7531    -5.5127    23.3493 H      65 MOH   0.0600 
 390 H       -6.4383    -6.1960    21.8309 H      65 MOH   0.4180 
 391 O        1.5368    -8.8998   -13.9814 O.3    66 MOH  -0.6830 
 392 C        2.6701    -8.5842   -14.7655 C.3    66 MOH   0.0850 
 393 H        2.3679    -8.1380   -15.7141 H      66 MOH   0.0600 
 394 H        3.2489    -9.4834   -14.9812 H      66 MOH   0.0600 
 395 H        3.3160    -7.8766   -14.2447 H      66 MOH   0.0600 
 396 H        0.9944    -9.5142   -14.4872 H      66 MOH   0.4180 
 397 O       -2.7659     4.7411   -16.4445 O.3    67 MOH  -0.6830 
 398 C       -3.5358     5.4651   -17.3854 C.3    67 MOH   0.0850 
 399 H       -4.0893     4.7834   -18.0322 H      67 MOH   0.0600 
 400 H       -2.8933     6.0893   -18.0073 H      67 MOH   0.0600 
 401 H       -4.2536     6.1124   -16.8796 H      67 MOH   0.0600 
 402 H       -3.3679     4.1788   -15.9368 H      67 MOH   0.4180 
 403 O       29.0115     4.8788    -9.8586 O.3    68 MOH  -0.6830 
 404 C       28.8075     3.4847   -10.0048 C.3    68 MOH   0.0850 
 405 H       28.0969     3.2837   -10.8073 H      68 MOH   0.0600 
 406 H       28.4141     3.0525    -9.0855 H      68 MOH   0.0600 
 407 H       29.7445     2.9797   -10.2451 H      68 MOH   0.0600 
 408 H       29.2384     5.2214   -10.7361 H      68 MOH   0.4180 
 409 O       -1.5115    -5.8660   -10.1942 O.3    69 MOH  -0.6830 
 410 C       -2.8654    -6.2668   -10.2601 C.3    69 MOH   0.0850 
 411 H       -3.4715    -5.6790    -9.5709 H      69 MOH   0.0600 
 412 H       -2.9706    -7.3195    -9.9942 H      69 MOH   0.0600 
 413 H       -3.2583    -6.1255   -11.2673 H      69 MOH   0.0600 
 414 H       -1.1847    -6.0612    -9.3082 H      69 MOH   0.4180 
 415 O       -6.2409    -9.8295    -8.3633 O.3    70 MOH  -0.6830 
 416 C       -5.7831   -10.0117    -7.0367 C.3    70 MOH   0.0850 
 417 H       -4.7217    -9.7737    -6.9585 H      70 MOH   0.0600 
 418 H       -5.9259   -11.0442    -6.7163 H      70 MOH   0.0600 
 419 H       -6.3306    -9.3622    -6.3531 H      70 MOH   0.0600 
 420 H       -6.0612    -8.9161    -8.6162 H      70 MOH   0.4180 
 421 O       -3.0584    -3.6916   -15.7935 O.3    71 MOH  -0.6830 
 422 C       -2.5807    -2.5390   -15.1249 C.3    71 MOH   0.0850 
 423 H       -3.1061    -1.6504   -15.4779 H      71 MOH   0.0600 
 424 H       -1.5144    -2.3937   -15.2970 H      71 MOH   0.0600 
 425 H       -2.7470    -2.6284   -14.0509 H      71 MOH   0.0600 
 426 H       -4.0056    -3.7382   -15.6076 H      71 MOH   0.4180 
 427 O        5.2553    -7.0307     8.4761 O.3    72 MOH  -0.6830 
 428 C        3.9423    -6.6340     8.8203 C.3    72 MOH   0.0850 
 429 H        3.4140    -7.4419     9.3271 H      72 MOH   0.0600 
 430 H        3.3785    -6.3652     7.9267 H      72 MOH   0.0600 
 431 H        3.9652    -5.7706     9.4860 H      72 MOH   0.0600 
 432 H        5.1956    -7.7317     7.8164 H      72 MOH   0.4180 
 433 O      -10.6758     5.1133    23.1265 O.3    73 MOH  -0.6830 
 434 C      -11.1605     3.7853    23.0801 C.3    73 MOH   0.0850 
 435 H      -11.1051     3.3946    22.0635 H      73 MOH   0.0600 
 436 H      -12.2009     3.7471    23.4055 H      73 MOH   0.0600 
 437 H      -10.5703     3.1366    23.7290 H      73 MOH   0.0600 
 438 H      -11.2258     5.6490    22.5381 H      73 MOH   0.4180 
 439 O       -4.1721    -2.9499    -3.3053 O.3    74 MOH  -0.6830 
 440 C       -4.0331    -1.8055    -2.4864 C.3    74 MOH   0.0850 
 441 H       -4.7583    -1.8173    -1.6723 H      74 MOH   0.0600 
 442 H       -4.1802    -0.8992    -3.0733 H      74 MOH   0.0600 
 443 H       -3.0334    -1.7619    -2.0552 H      74 MOH   0.0600 
 444 H       -3.4404    -2.9315    -3.9368 H      74 MOH   0.4180 
 445 O       -7.5970     4.1690    -2.4845 O.3    75 MOH  -0.6830 
 446 C       -6.5725     5.0777    -2.8395 C.3    75 MOH   0.0850 
 447 H       -6.0259     4.7231    -3.7137 H      75 MOH   0.0600 
 448 H       -5.8666     5.1960    -2.0171 H      75 MOH   0.0600 
 449 H       -6.9909     6.0561    -3.0747 H      75 MOH   0.0600 
 450 H       -8.1439     4.5810    -1.8015 H      75 MOH   0.4180 
 451 O        9.9111     6.6759    -0.4023 O.3    76 MOH  -0.6830 
 452 C        9.2932     5.8426     0.5603 C.3    76 MOH   0.0850 
 453 H        8.6917     5.0735     0.0753 H      76 MOH   0.0600 
 454 H        8.6336     6.4284     1.2018 H      76 MOH   0.0600 
 455 H       10.0405     5.3559     1.1880 H      76 MOH   0.0600 
 456 H       10.5295     6.1567    -0.9280 H      76 MOH   0.4180 
 457 O       -7.0892   -14.9770    -4.2667 O.3    77 MOH  -0.6830 
 458 C       -6.4064   -14.9406    -5.5068 C.3    77 MOH   0.0850 
 459 H       -6.3885   -13.9282    -5.9121 H      77 MOH   0.0600 
 460 H       -6.8885   -15.5916    -6.2371 H      77 MOH   0.0600 
 461 H       -5.3747   -15.2702    -5.3823 H      77 MOH   0.0600 
 462 H       -6.6479   -14.3588    -3.6768 H      77 MOH   0.4180 
 463 O       -1.0038    -4.4744   -17.4762 O.3    78 MOH  -0.6830 
 464 C        0.2254    -3.9114   -17.0568 C.3    78 MOH   0.0850 
 465 H        1.0503    -4.2826   -17.6667 H      78 MOH   0.0600 
 466 H        0.4269    -4.1685   -16.0165 H      78 MOH   0.0600 
 467 H        0.1996    -2.8243   -17.1425 H      78 MOH   0.0600 
 468 H       -1.6987    -4.1572   -16.8835 H      78 MOH   0.4180 
 469 O       -7.0331   -15.6773    11.1969 O.3    79 MOH  -0.6830 
 470 C       -6.9861   -17.0019    11.6883 C.3    79 MOH   0.0850 
 471 H       -6.1604   -17.1185    12.3918 H      79 MOH   0.0600 
 472 H       -6.8464   -17.7106    10.8709 H      79 MOH   0.0600 
 473 H       -7.9136   -17.2511    12.2052 H      79 MOH   0.0600 
 474 H       -7.1369   -15.0922    11.9526 H      79 MOH   0.4180 
 475 O        6.2706   -18.6626     0.0905 O.3    80 MOH  -0.6830 
 476 C        5.4273   -17.6280    -0.3833 C.3    80 MOH   0.0850 
 477 H        5.9874   -16.7008    -0.5080 H      80 MOH   0.0600 
 478 H        4.6105   -17.4413     0.3146 H      80 MOH   0.0600 
 479 H        4.9954   -17.8952    -1.3484 H      80 MOH   0.0600 
 480 H        6.9849   -18.7795    -0.5513 H      80 MOH   0.4180 
 481 O       -3.2932   -13.6126    22.2847 O.3    81 MOH  -0.6830 
 482 C       -3.8574   -14.3995    21.2552 C.3    81 MOH   0.0850 
 483 H       -4.5515   -15.1305    21.6714 H      81 MOH   0.0600 
 484 H       -3.0787   -14.9333    20.7093 H      81 MOH   0.0600 
 485 H       -4.4048   -13.7731    20.5500 H      81 MOH   0.0600 
 486 H       -4.0132   -13.1490    22.7296 H      81 MOH   0.4180 
 487 O        4.7482    -1.4193    -2.5028 O.3    82 MOH  -0.6830 
 488 C        5.4265    -2.0453    -3.5723 C.3    82 MOH   0.0850 
 489 H        4.7470    -2.2076    -4.4096 H      82 MOH   0.0600 
 490 H        5.8326    -3.0097    -3.2650 H      82 MOH   0.0600 
 491 H        6.2510    -1.4179    -3.9126 H      82 MOH   0.0600 
 492 H        4.4270    -0.5665    -2.8224 H      82 MOH   0.4180 
 493 O       -4.5446    16.9838    -7.1089 O.3    83 MOH  -0.6830 
 494 C       -3.1888    16.7346    -7.4361 C.3    83 MOH   0.0850 
 495 H       -2.5281    17.2451    -6.7338 H      83 MOH   0.0600 
 496 H       -2.9596    17.0864    -8.4429 H      83 MOH   0.0600 
 497 H       -2.9759    15.6656    -7.3879 H      83 MOH   0.0600 
 498 H       -4.6786    16.6451    -6.2100 H      83 MOH   0.4180 
 499 O        1.2675    20.2803     5.9080 O.3    84 MOH  -0.6830 
 500 C        2.5794    20.7597     6.1298 C.3    84 MOH   0.0850 
 501 H        2.8413    21.5297     5.4030 H      84 MOH   0.0600 
 502 H        3.2996    19.9458     6.0419 H      84 MOH   0.0600 
 503 H        2.6705    21.1847     7.1288 H      84 MOH   0.0600 
 504 H        0.6579    21.0190     5.9129 H      84 MOH   0.4180 
 505 O        4.6585    -8.3582   -17.3829 O.3    85 MOH  -0.6830 
 506 C        5.8442    -8.6305   -16.6574 C.3    85 MOH   0.0850 
 507 H        5.9987    -7.8783   -15.8829 H      85 MOH   0.0600 
 508 H        6.7121    -8.6203   -17.3184 H      85 MOH   0.0600 
 509 H        5.7895    -9.6100   -16.1806 H      85 MOH   0.0600 
 510 H        4.7612    -7.4854   -17.7903 H      85 MOH   0.4180 
 511 O        8.8385   -15.5771   -14.7997 O.3    86 MOH  -0.6830 
 512 C        8.3958   -16.5591   -15.7158 C.3    86 MOH   0.0850 
 513 H        8.2397   -17.5138   -15.2127 H      86 MOH   0.0600 
 514 H        9.1275   -16.7044   -16.5112 H      86 MOH   0.0600 
 515 H        7.4520   -16.2578   -16.1696 H      86 MOH   0.0600 
 516 H        8.1660   -15.4791   -14.1237 H      86 MOH   0.4180 
 517 O        4.5704    17.2643     2.4056 O.3    87 MOH  -0.6830 
 518 C        4.1749    17.0868     3.7551 C.3    87 MOH   0.0850 
 519 H        3.4491    17.8484     4.0452 H      87 MOH   0.0600 
 520 H        5.0350    17.1684     4.4209 H      87 MOH   0.0600 
 521 H        3.7213    16.1060     3.9021 H      87 MOH   0.0600 
 522 H        4.9670    18.1472     2.3392 H      87 MOH   0.4180 
 523 O        9.1839    -5.8907    -1.3945 O.3    88 MOH  -0.6830 
 524 C        8.2807    -4.8209    -1.1810 C.3    88 MOH   0.0850 
 525 H        7.8789    -4.4609    -2.1285 H      88 MOH   0.0600 
 526 H        8.7743    -3.9857    -0.6827 H      88 MOH   0.0600 
 527 H        7.4429    -5.1417    -0.5609 H      88 MOH   0.0600 
 528 H        8.7185    -6.5697    -1.9014 H      88 MOH   0.4180 
 529 O        7.0663    -6.7147    -6.9889 O.3    89 MOH  -0.6830 
 530 C        7.0881    -5.6986    -6.0056 C.3    89 MOH   0.0850 
 531 H        7.5091    -6.0734    -5.0717 H      89 MOH   0.0600 
 532 H        6.0832    -5.3259    -5.8066 H      89 MOH   0.0600 
 533 H        7.6982    -4.8636    -6.3481 H      89 MOH   0.0600 
 534 H        7.9762    -6.9912    -7.1300 H      89 MOH   0.4180 
 535 O       -7.2384    19.6901    -0.0139 O.3    90 MOH  -0.6830 
 536 C       -7.1722    20.6431     1.0266 C.3    90 MOH   0.0850 
 537 H       -6.1369    20.9194     1.2290 H      90 MOH   0.0600 
 538 H       -7.6083    20.2371     1.9401 H      90 MOH   0.0600 
 539 H       -7.7250    21.5430     0.7541 H      90 MOH   0.0600 
 540 H       -8.1735    19.4778    -0.1544 H      90 MOH   0.4180 
 541 O       -5.7710   -13.0428    -2.6888 O.3    91 MOH  -0.6830 
 542 C       -6.8593   -12.1517    -2.5415 C.3    91 MOH   0.0850 
 543 H       -7.5986   -12.5548    -1.8488 H      91 MOH   0.0600 
 544 H       -7.3472   -11.9788    -3.5007 H      91 MOH   0.0600 
 545 H       -6.5118   -11.1906    -2.1627 H      91 MOH   0.0600 
 546 H       -5.1944   -12.6748    -3.3782 H      91 MOH   0.4180 
 547 O        5.0236    -5.8889   -18.5279 O.3    92 MOH  -0.6830 
 548 C        6.3587    -5.6992   -18.9602 C.3    92 MOH   0.0850 
 549 H        6.3834    -5.3840   -20.0031 H      92 MOH   0.0600 
 550 H        6.9316    -6.6225   -18.8696 H      92 MOH   0.0600 
 551 H        6.8498    -4.9290   -18.3642 H      92 MOH   0.0600 
 552 H        4.5726    -5.0387   -18.6061 H      92 MOH   0.4180 
 553 O        6.0982    -9.2259     1.3462 O.3    93 MOH  -0.6830 
 554 C        7.3547    -9.6212     1.8623 C.3    93 MOH   0.0850 
 555 H        7.9830    -8.7488     2.0419 H      93 MOH   0.0600 
 556 H        7.8745   -10.2779     1.1642 H      93 MOH   0.0600 
 557 H        7.2338   -10.1523     2.8069 H      93 MOH   0.0600 
 558 H        5.7238    -8.5669     1.9487 H      93 MOH   0.4180 
 559 O        3.9855     1.0584    -3.4250 O.3    94 MOH  -0.6830 
 560 C        2.6585     1.4277    -3.7503 C.3    94 MOH   0.0850 
 561 H        2.0735     0.5603    -4.0509 H      94 MOH   0.0600 
 562 H        2.6508     2.1448    -4.5723 H      94 MOH   0.0600 
 563 H        2.1683     1.8868    -2.8910 H      94 MOH   0.0600 
 564 H        4.4565     1.8726    -3.2010 H      94 MOH   0.4180 
 565 O       -2.9897    -5.5358     1.8255 O.3    95 MOH  -0.6830 
 566 C       -2.5389    -6.8329     2.1634 C.3    95 MOH   0.0850 
 567 H       -2.4605    -7.4535     1.2705 H      95 MOH   0.0600 
 568 H       -3.2326    -7.3128     2.8518 H      95 MOH   0.0600 
 569 H       -1.5608    -6.7932     2.6431 H      95 MOH   0.0600 
 570 H       -2.8968    -4.9665     2.5966 H      95 MOH   0.4180 
 571 O       10.2784   -13.2193     4.0074 O.3    96 MOH  -0.6830 
 572 C        9.1113   -13.0408     4.7844 C.3    96 MOH   0.0850 
 573 H        9.3729   -12.8380     5.8220 H      96 MOH   0.0600 
 574 H        8.4913   -13.9373     4.7582 H      96 MOH   0.0600 
 575 H        8.5248   -12.2010     4.4088 H      96 MOH   0.0600 
 576 H       10.8357   -13.8786     4.4418 H      96 MOH   0.4180 
 577 O       -0.6897   -17.5547     5.6184 O.3    97 MOH  -0.6830 
 578 C       -0.1387   -17.3872     4.3238 C.3    97 MOH   0.0850 
 579 H       -0.4309   -18.2156     3.6768 H      97 MOH   0.0600 
 580 H        0.9489   -17.3508     4.3616 H      97 MOH   0.0600 
 581 H       -0.4934   -16.4622     3.8687 H      97 MOH   0.0600 
 582 H       -1.6484   -17.4789     5.5099 H      97 MOH   0.4180 
 583 O        1.5166    -9.1392   -11.2233 O.3    98 MOH  -0.6830 
 584 C        0.4783    -8.2566   -10.8414 C.3    98 MOH   0.0850 
 585 H        0.3367    -8.2571    -9.7604 H      98 MOH   0.0600 
 586 H       -0.4643    -8.5455   -11.3084 H      98 MOH   0.0600 
 587 H        0.7117    -7.2389   -11.1556 H      98 MOH   0.0600 
 588 H        1.5918    -9.0783   -12.1837 H      98 MOH   0.4180 
 589 O       28.5623    22.9850    -7.4926 O.3    99 MOH  -0.6830 
 590 C       29.6489    22.2225    -6.9970 C.3    99 MOH   0.0850 
 591 H       30.0467    21.5675    -7.7729 H      99 MOH   0.0600 
 592 H       29.3385    21.6071    -6.1515 H      99 MOH   0.0600 
 593 H       30.4553    22.8750    -6.6606 H      99 MOH   0.0600 
 594 H       27.9147    22.3905    -7.8515 H      99 MOH   0.4180 
 595 O       -4.3464    -9.6613   -15.6857 O.3   100 MOH  -0.6830 
 596 C       -5.4374    -8.7987   -15.4165 C.3   100 MOH   0.0850 
 597 H       -6.3142    -9.0874   -15.9968 H     100 MOH   0.0600 
 598 H       -5.1857    -7.7680   -15.6697 H     100 MOH   0.0600 
 599 H       -5.7018    -8.8321   -14.3586 H     100 MOH   0.0600 
 600 H       -3.5909    -9.3312   -15.1744 H     100 MOH   0.4180 
 601 O       -4.8263    19.5966    -7.9805 O.3   101 MOH  -0.6830 
 602 C       -6.1252    20.0333    -7.6317 C.3   101 MOH   0.0850 
 603 H       -6.2627    19.9984    -6.5502 H     101 MOH   0.0600 
 604 H       -6.8791    19.3950    -8.0937 H     101 MOH   0.0600 
 605 H       -6.2879    21.0583    -7.9670 H     101 MOH   0.0600 
 606 H       -4.7335    18.6831    -7.6851 H     101 MOH   0.4180 
 607 O        8.5961    -5.5498   -10.0309 O.3   102 MOH  -0.6830 
 608 C        7.5345    -4.6476    -9.7755 C.3   102 MOH   0.0850 
 609 H        6.6908    -5.1649    -9.3195 H     102 MOH   0.0600 
 610 H        7.1906    -4.1850   -10.7013 H     102 MOH   0.0600 
 611 H        7.8522    -3.8565    -9.0955 H     102 MOH   0.0600 
 612 H        8.2879    -6.2077   -10.6726 H     102 MOH   0.4180 
 613 O        4.8123    -7.3755     2.8401 O.3   103 MOH  -0.6830 
 614 C        4.7025    -6.1361     2.1707 C.3   103 MOH   0.0850 
 615 H        4.4165    -5.3486     2.8689 H     103 MOH   0.0600 
 616 H        3.9514    -6.1817     1.3816 H     103 MOH   0.0600 
 617 H        5.6580    -5.8688     1.7186 H     103 MOH   0.0600 
 618 H        3.9395    -7.5990     3.1956 H     103 MOH   0.4180 
 619 O       -4.8983    -6.9634    21.5831 O.3   104 MOH  -0.6830 
 620 C       -3.9536    -5.9941    21.9954 C.3   104 MOH   0.0850 
 621 H       -4.4411    -5.0393    22.1954 H     104 MOH   0.0600 
 622 H       -3.2027    -5.8385    21.2201 H     104 MOH   0.0600 
 623 H       -3.4431    -6.3153    22.9045 H     104 MOH   0.0600 
 624 H       -4.4249    -7.7978    21.4764 H     104 MOH   0.4180 
 625 O        4.5999    -6.7533    -8.0333 O.3   105 MOH  -0.6830 
 626 C        4.5294    -7.4723    -9.2499 C.3   105 MOH   0.0850 
 627 H        3.4950    -7.5741    -9.5818 H     105 MOH   0.0600 
 628 H        4.9526    -8.4703    -9.1288 H     105 MOH   0.0600 
 629 H        5.0901    -6.9568   -10.0295 H     105 MOH   0.0600 
 630 H        5.5220    -6.7738    -7.7248 H     105 MOH   0.4180 
 631 O       -1.1268    -0.2666    22.6833 O.3   106 MOH  -0.6830 
 632 C       -1.8523    -0.8863    21.6407 C.3   106 MOH   0.0850 
 633 H       -2.5505    -1.6227    22.0396 H     106 MOH   0.0600 
 634 H       -1.1736    -1.3952    20.9569 H     106 MOH   0.0600 
 635 H       -2.4179    -0.1447    21.0758 H     106 MOH   0.0600 
 636 H       -0.5180     0.3633    22.2916 H     106 MOH   0.4180 
 637 O       12.8059   -11.8238    21.3594 O.3   107 MOH  -0.6830 
 638 C       11.6954   -12.4836    20.7788 C.3   107 MOH   0.0850 
 639 H       10.8964   -11.7733    20.5590 H     107 MOH   0.0600 
 640 H       11.3017   -13.2428    21.4560 H     107 MOH   0.0600 
 641 H       11.9847   -12.9754    19.8489 H     107 MOH   0.0600 
 642 H       13.4659   -12.4915    21.5857 H     107 MOH   0.4180 
 643 O       -0.4804    -6.4183    -7.6822 O.3   108 MOH  -0.6830 
 644 C        0.8169    -5.8519    -7.7168 C.3   108 MOH   0.0850 
 645 H        1.5757    -6.6347    -7.7435 H     108 MOH   0.0600 
 646 H        0.9949    -5.2381    -6.8336 H     108 MOH   0.0600 
 647 H        0.9411    -5.2206    -8.5964 H     108 MOH   0.0600 
 648 H       -0.5551    -6.9138    -6.8570 H     108 MOH   0.4180 
 649 O        0.6122     1.5392   -18.5883 O.3   109 MOH  -0.6830 
 650 C       -0.0489     2.7286   -18.1908 C.3   109 MOH   0.0850 
 651 H        0.1960     2.9795   -17.1574 H     109 MOH   0.0600 
 652 H       -1.1318     2.6134   -18.2614 H     109 MOH   0.0600 
 653 H        0.2474     3.5636   -18.8270 H     109 MOH   0.0600 
 654 H        1.5635     1.6922   -18.5392 H     109 MOH   0.4180 
 655 O       -5.2362   -12.1133   -16.5120 O.3   110 MOH  -0.6830 
 656 C       -6.5618   -12.3853   -16.0990 C.3   110 MOH   0.0850 
 657 H       -6.9334   -13.2931   -16.5761 H     110 MOH   0.0600 
 658 H       -7.2280   -11.5636   -16.3646 H     110 MOH   0.0600 
 659 H       -6.6047   -12.5213   -15.0179 H     110 MOH   0.0600 
 660 H       -4.9653   -11.2754   -16.1164 H     110 MOH   0.4180 
 661 O       -3.6766    -9.4010    21.6299 O.3   111 MOH  -0.6830 
 662 C       -3.5442   -10.5822    20.8641 C.3   111 MOH   0.0850 
 663 H       -4.4484   -11.1880    20.9274 H     111 MOH   0.0600 
 664 H       -2.7065   -11.1817    21.2199 H     111 MOH   0.0600 
 665 H       -3.3677   -10.3386    19.8161 H     111 MOH   0.0600 
 666 H       -3.8737    -9.6424    22.5413 H     111 MOH   0.4180 
 667 O       -2.1981     6.5079   -14.3801 O.3   112 MOH  -0.6830 
 668 C       -3.4316     6.7007   -13.7126 C.3   112 MOH   0.0850 
 669 H       -3.3468     7.4920   -12.9671 H     112 MOH   0.0600 
 670 H       -3.7402     5.7844   -13.2086 H     112 MOH   0.0600 
 671 H       -4.2140     6.9791   -14.4202 H     112 MOH   0.0600 
 672 H       -2.3367     5.8425   -15.0647 H     112 MOH   0.4180 
 673 O       -7.1278    -1.5735   -16.6260 O.3   113 MOH  -0.6830 
 674 C       -7.0551    -2.2850   -17.8501 C.3   113 MOH   0.0850 
 675 H       -8.0148    -2.7487   -18.0824 H     113 MOH   0.0600 
 676 H       -6.3019    -3.0721   -17.8059 H     113 MOH   0.0600 
 677 H       -6.7930    -1.6158   -18.6702 H     113 MOH   0.0600 
 678 H       -7.7399    -0.8422   -16.7547 H     113 MOH   0.4180 
 679 O        9.6984    -6.9261    -7.9013 O.3   114 MOH  -0.6830 
 680 C        9.8161    -8.2237    -8.4562 C.3   114 MOH   0.0850 
 681 H       10.6404    -8.2595    -9.1693 H     114 MOH   0.0600 
 682 H        8.8996    -8.5073    -8.9759 H     114 MOH   0.0600 
 683 H       10.0048    -8.9597    -7.6759 H     114 MOH   0.0600 
 684 H        9.4180    -6.3359    -8.6126 H     114 MOH   0.4180 
 685 O        2.3453    -8.0780     3.6899 O.3   115 MOH  -0.6830 
 686 C        2.0766    -7.6833     5.0213 C.3   115 MOH   0.0850 
 687 H        1.7367    -8.5322     5.6153 H     115 MOH   0.0600 
 688 H        1.3030    -6.9160     5.0417 H     115 MOH   0.0600 
 689 H        2.9745    -7.2773     5.4884 H     115 MOH   0.0600 
 690 H        1.5365    -8.4463     3.3083 H     115 MOH   0.4180 
 691 O        2.8926    -0.3615    14.6048 O.3   116 MOH  -0.6830 
 692 C        2.0928    -0.7174    15.7175 C.3   116 MOH   0.0850 
 693 H        1.0354    -0.5922    15.4818 H     116 MOH   0.0600 
 694 H        2.3283    -0.0952    16.5814 H     116 MOH   0.0600 
 695 H        2.2569    -1.7588    15.9948 H     116 MOH   0.0600 
 696 H        2.5825    -0.8746    13.8462 H     116 MOH   0.4180 
 697 O        3.7768    -4.1782    -7.4852 O.3   117 MOH  -0.6830 
 698 C        3.7153    -3.5271    -8.7382 C.3   117 MOH   0.0850 
 699 H        3.0767    -4.0865    -9.4216 H     117 MOH   0.0600 
 700 H        4.7073    -3.4555    -9.1852 H     117 MOH   0.0600 
 701 H        3.3108    -2.5200    -8.6337 H     117 MOH   0.0600 
 702 H        4.0367    -5.0902    -7.6465 H     117 MOH   0.4180 
 703 O       -2.8763    -0.8289     0.4286 O.3   118 MOH  -0.6830 
 704 C       -2.1662    -1.0752     1.6256 C.3   118 MOH   0.0850 
 705 H       -1.3660    -1.7975     1.4630 H     118 MOH   0.0600 
 706 H       -2.8341    -1.4703     2.3901 H     118 MOH   0.0600 
 707 H       -1.7211    -0.1534     2.0003 H     118 MOH   0.0600 
 708 H       -3.5892    -0.2160     0.6212 H     118 MOH   0.4180 
 709 O       -5.7369    -3.5017   -15.1824 O.3   119 MOH  -0.6830 
 710 C       -6.4030    -3.7718   -13.9659 C.3   119 MOH   0.0850 
 711 H       -5.8758    -4.5435   -13.4041 H     119 MOH   0.0600 
 712 H       -7.4200    -4.1172   -14.1560 H     119 MOH   0.0600 
 713 H       -6.4563    -2.8718   -13.3520 H     119 MOH   0.0600 
 714 H       -6.2433    -2.8258   -15.6532 H     119 MOH   0.4180 
 715 O      -12.4926    -7.6877     2.4824 O.3   120 MOH  -0.6830 
 716 C      -11.4893    -8.6045     2.0902 C.3   120 MOH   0.0850 
 717 H      -11.4361    -9.4392     2.7902 H     120 MOH   0.0600 
 718 H      -10.5114    -8.1225     2.0567 H     120 MOH   0.0600 
 719 H      -11.7124    -9.0048     1.1008 H     120 MOH   0.0600 
 720 H      -13.3340    -8.1678     2.4885 H     120 MOH   0.4180 
 721 O        5.1028     3.4904    -2.8733 O.3   121 MOH  -0.6830 
 722 C        5.1666     3.9776    -1.5464 C.3   121 MOH   0.0850 
 723 H        5.5492     3.2146    -0.8703 H     121 MOH   0.0600 
 724 H        4.1778     4.2817    -1.2011 H     121 MOH   0.0600 
 725 H        5.8280     4.8409    -1.4852 H     121 MOH   0.0600 
 726 H        4.7817     4.2099    -3.4350 H     121 MOH   0.4180 
 727 O       -5.8688    -7.1703    -8.9720 O.3   122 MOH  -0.6830 
 728 C       -7.1059    -6.5755    -9.3142 C.3   122 MOH   0.0850 
 729 H       -7.4274    -6.8997   -10.3044 H     122 MOH   0.0600 
 730 H       -7.0223    -5.4881    -9.3182 H     122 MOH   0.0600 
 731 H       -7.8762    -6.8569    -8.5959 H     122 MOH   0.0600 
 732 H       -5.6310    -6.8758    -8.0823 H     122 MOH   0.4180 
 733 O       -0.0551    -4.4474    -1.3773 O.3   123 MOH  -0.6830 
 734 C       -1.2356    -3.8029    -0.9400 C.3   123 MOH   0.0850 
 735 H       -2.0082    -3.8628    -1.7043 H     123 MOH   0.0600 
 736 H       -1.0476    -2.7520    -0.7241 H     123 MOH   0.0600 
 737 H       -1.6144    -4.2679    -0.0314 H     123 MOH   0.0600 
 738 H        0.5848    -4.3912    -0.6570 H     123 MOH   0.4180 
 739 O       19.8178   -10.5043    -6.7155 O.3   124 MOH  -0.6830 
 740 C       19.3056    -9.9643    -7.9197 C.3   124 MOH   0.0850 
 741 H       19.4725   -10.6554    -8.7468 H     124 MOH   0.0600 
 742 H       19.8021    -9.0223    -8.1552 H     124 MOH   0.0600 
 743 H       18.2355    -9.7736    -7.8499 H     124 MOH   0.0600 
 744 H       20.7397   -10.7392    -6.8894 H     124 MOH   0.4180 
 745 O       -1.6841     2.9683    -4.4129 O.3   125 MOH  -0.6830 
 746 C       -2.6675     3.6998    -5.1238 C.3   125 MOH   0.0850 
 747 H       -2.5294     4.7707    -4.9714 H     125 MOH   0.0600 
 748 H       -3.6707     3.4350    -4.7865 H     125 MOH   0.0600 
 749 H       -2.6056     3.4999    -6.1944 H     125 MOH   0.0600 
 750 H       -1.7102     3.2489    -3.5064 H     125 MOH   0.4180 
 751 O       24.9697    -9.5690   -11.0148 O.3   126 MOH  -0.6830 
 752 C       25.0229   -10.8639   -10.4525 C.3   126 MOH   0.0850 
 753 H       26.0525   -11.2191   -10.4116 H     126 MOH   0.0600 
 754 H       24.4505   -11.5675   -11.0579 H     126 MOH   0.0600 
 755 H       24.6146   -10.8616    -9.4419 H     126 MOH   0.0600 
 756 H       25.4534    -9.6023   -11.8443 H     126 MOH   0.4180 
 757 O       -4.3014     0.5233    -8.4908 O.3   127 MOH  -0.6830 
 758 C       -4.8909     1.2539    -7.4328 C.3   127 MOH   0.0850 
 759 H       -5.9771     1.1690    -7.4784 H     127 MOH   0.0600 
 760 H       -4.6265     2.3104    -7.4908 H     127 MOH   0.0600 
 761 H       -4.5576     0.8661    -6.4695 H     127 MOH   0.0600 
 762 H       -4.5835    -0.3933    -8.3914 H     127 MOH   0.4180 
 763 O        2.6150    -3.1004     2.9142 O.3   128 MOH  -0.6830 
 764 C        1.9737    -3.6062     4.0700 C.3   128 MOH   0.0850 
 765 H        2.0546    -2.8905     4.8876 H     128 MOH   0.0600 
 766 H        2.4379    -4.5398     4.3899 H     128 MOH   0.0600 
 767 H        0.9160    -3.7939     3.8830 H     128 MOH   0.0600 
 768 H        3.5153    -2.8642     3.1723 H     128 MOH   0.4180 
 769 O        1.3017   -15.1253    -7.5380 O.3   129 MOH  -0.6830 
 770 C        1.2430   -14.3007    -8.6870 C.3   129 MOH   0.0850 
 771 H        0.2665   -13.8245    -8.7731 H     129 MOH   0.0600 
 772 H        1.4150   -14.8903    -9.5877 H     129 MOH   0.0600 
 773 H        1.9978   -13.5165    -8.6425 H     129 MOH   0.0600 
 774 H        0.6353   -15.8171    -7.6437 H     129 MOH   0.4180 
 775 O       -5.6606   -16.1472     3.9145 O.3   130 MOH  -0.6830 
 776 C       -6.4297   -17.3328     3.9906 C.3   130 MOH   0.0850 
 777 H       -7.2600   -17.2966     3.2844 H     130 MOH   0.0600 
 778 H       -6.8426   -17.4559     4.9923 H     130 MOH   0.0600 
 779 H       -5.8175   -18.2064     3.7634 H     130 MOH   0.0600 
 780 H       -6.2624   -15.4073     4.0551 H     130 MOH   0.4180 
 781 O       18.1948    -2.8169    20.3904 O.3   131 MOH  -0.6830 
 782 C       18.1061    -3.6859    19.2760 C.3   131 MOH   0.0850 
 783 H       17.1691    -3.5339    18.7383 H     131 MOH   0.0600 
 784 H       18.1492    -4.7272    19.5967 H     131 MOH   0.0600 
 785 H       18.9294    -3.5101    18.5825 H     131 MOH   0.0600 
 786 H       18.2311    -1.9247    20.0716 H     131 MOH   0.4180 
 787 O       28.2892    -2.9713    11.7401 O.3   132 MOH  -0.6830 
 788 C       29.0713    -2.3270    12.7274 C.3   132 MOH   0.0850 
 789 H       29.0313    -1.2450    12.5962 H     132 MOH   0.0600 
 790 H       30.1125    -2.6455    12.6650 H     132 MOH   0.0600 
 791 H       28.6949    -2.5630    13.7238 H     132 MOH   0.0600 
 792 H       27.3764    -2.6623    11.8576 H     132 MOH   0.4180 
 793 O       30.5159    20.5421     7.0703 O.3   133 MOH  -0.6830 
 794 C       30.2576    20.7360     5.6936 C.3   133 MOH   0.0850 
 795 H       29.2459    21.1098     5.5374 H     133 MOH   0.0600 
 796 H       30.3630    19.8002     5.1479 H     133 MOH   0.0600 
 797 H       30.9591    21.4522     5.2694 H     133 MOH   0.0600 
 798 H       30.3606    21.3591     7.5229 H     133 MOH   0.4180 
 799 O       -7.4596   -14.0889     4.3341 O.3   134 MOH  -0.6830 
 800 C       -7.7900   -13.5228     3.0777 C.3   134 MOH   0.0850 
 801 H       -7.5613   -14.2164     2.2677 H     134 MOH   0.0600 
 802 H       -7.2283   -12.6026     2.9103 H     134 MOH   0.0600 
 803 H       -8.8529   -13.2802     3.0350 H     134 MOH   0.0600 
 804 H       -7.7076   -13.4431     5.0130 H     134 MOH   0.4180 
 805 O       -5.2760    -6.5691    -6.3807 O.3   135 MOH  -0.6830 
 806 C       -3.8742    -6.4646    -6.2069 C.3   135 MOH   0.0850 
 807 H       -3.3814    -6.1869    -7.1388 H     135 MOH   0.0600 
 808 H       -3.4557    -7.4137    -5.8688 H     135 MOH   0.0600 
 809 H       -3.6437    -5.7056    -5.4591 H     135 MOH   0.0600 
 810 H       -5.6492    -6.8192    -5.5249 H     135 MOH   0.4180 
 811 O       -8.3549   -12.2176     6.0747 O.3   136 MOH  -0.6830 
 812 C       -9.2826   -12.0345     7.1293 C.3   136 MOH   0.0850 
 813 H       -9.0791   -11.1098     7.6700 H     136 MOH   0.0600 
 814 H      -10.3010   -11.9823     6.7408 H     136 MOH   0.0600 
 815 H       -9.2322   -12.8588     7.8397 H     136 MOH   0.0600 
 816 H       -8.4914   -11.4966     5.4487 H     136 MOH   0.4180 
 817 O       -1.4366   -13.7776    -0.2935 O.3   137 MOH  -0.6830 
 818 C       -1.2046   -13.5067     1.0738 C.3   137 MOH   0.0850 
 819 H       -0.1594   -13.6682     1.3359 H     137 MOH   0.0600 
 820 H       -1.8149   -14.1586     1.6985 H     137 MOH   0.0600 
 821 H       -1.4592   -12.4708     1.2975 H     137 MOH   0.0600 
 822 H       -2.3900   -13.7367    -0.4366 H     137 MOH   0.4180 
 823 O       22.5718    -6.5986     5.3534 O.3   138 MOH  -0.6830 
 824 C       23.9539    -6.8862     5.2476 C.3   138 MOH   0.0850 
 825 H       24.1142    -7.7700     4.6318 H     138 MOH   0.0600 
 826 H       24.3870    -7.0676     6.2299 H     138 MOH   0.0600 
 827 H       24.4916    -6.0526     4.7942 H     138 MOH   0.0600 
 828 H       22.1081    -7.4011     5.6166 H     138 MOH   0.4180 
 829 O       26.6078    -0.8535     6.2639 O.3   139 MOH  -0.6830 
 830 C       25.8084    -0.2026     5.2944 C.3   139 MOH   0.0850 
 831 H       25.7759     0.8719     5.4780 H     139 MOH   0.0600 
 832 H       24.7879    -0.5871     5.3185 H     139 MOH   0.0600 
 833 H       26.2105    -0.3645     4.2937 H     139 MOH   0.0600 
 834 H       26.6422    -1.7891     6.0405 H     139 MOH   0.4180 
 835 O        8.0508   -12.2576    21.8476 O.3   140 MOH  -0.6830 
 836 C        8.7501   -12.4307    23.0658 C.3   140 MOH   0.0850 
 837 H        8.8394   -13.4900    23.3102 H     140 MOH   0.0600 
 838 H        8.2207   -11.9373    23.8819 H     140 MOH   0.0600 
 839 H        9.7520   -12.0054    23.0028 H     140 MOH   0.0600 
 840 H        7.1462   -12.5693    21.9919 H     140 MOH   0.4180 
 841 O       -7.3890    -1.6309    -5.9561 O.3   141 MOH  -0.6830 
 842 C       -7.1257    -0.9683    -4.7364 C.3   141 MOH   0.0850 
 843 H       -6.6467    -1.6441    -4.0270 H     141 MOH   0.0600 
 844 H       -8.0538    -0.6076    -4.2906 H     141 MOH   0.0600 
 845 H       -6.4655    -0.1167    -4.8980 H     141 MOH   0.0600 
 846 H       -7.9971    -2.3559    -5.7648 H     141 MOH   0.4180 
 847 O       25.4505    16.7265    21.0603 O.3   142 MOH  -0.6830 
 848 C       24.5796    16.3776    20.0000 C.3   142 MOH   0.0850 
 849 H       24.8648    16.8928    19.0822 H     142 MOH   0.0600 
 850 H       23.5525    16.6524    20.2430 H     142 MOH   0.0600 
 851 H       24.6086    15.3032    19.8123 H     142 MOH   0.0600 
 852 H       25.1743    16.2339    21.8370 H     142 MOH   0.4180 
 853 O        9.6250   -15.0130    12.6954 O.3   143 MOH  -0.6830 
 854 C       11.0263   -14.9946    12.8801 C.3   143 MOH   0.0850 
 855 H       11.4665   -15.9347    12.5459 H     143 MOH   0.0600 
 856 H       11.2716   -14.8549    13.9337 H     143 MOH   0.0600 
 857 H       11.4788   -14.1809    12.3117 H     143 MOH   0.0600 
 858 H        9.4452   -15.1277    11.7569 H     143 MOH   0.4180 
 859 O       -9.9948     1.2408    -1.3046 O.3   144 MOH  -0.6830 
 860 C      -10.7840     2.1843    -2.0097 C.3   144 MOH   0.0850 
 861 H      -10.2720     3.1444    -2.0795 H     144 MOH   0.0600 
 862 H      -11.7391     2.3482    -1.5106 H     144 MOH   0.0600 
 863 H      -10.9788     1.8357    -3.0241 H     144 MOH   0.0600 
 864 H       -9.1166     1.2651    -1.7113 H     144 MOH   0.4180 
 865 O        8.2089   -19.0412    -1.8201 O.3   145 MOH  -0.6830 
 866 C        7.7469   -19.1178    -3.1561 C.3   145 MOH   0.0850 
 867 H        8.0974   -18.2644    -3.7345 H     145 MOH   0.0600 
 868 H        6.6573   -19.1298    -3.1918 H     145 MOH   0.0600 
 869 H        8.1179   -20.0212    -3.6391 H     145 MOH   0.0600 
 870 H        9.1701   -19.1116    -1.8338 H     145 MOH   0.4180 
 871 O       -4.3621   -14.1963    16.5424 O.3   146 MOH  -0.6830 
 872 C       -3.1095   -13.7458    17.0187 C.3   146 MOH   0.0850 
 873 H       -2.8265   -12.8137    16.5291 H     146 MOH   0.0600 
 874 H       -2.3321   -14.4841    16.8235 H     146 MOH   0.0600 
 875 H       -3.1504   -13.5718    18.0940 H     146 MOH   0.0600 
 876 H       -4.3002   -14.3082    15.5887 H     146 MOH   0.4180 
 877 O       -7.1467    -7.6628     1.0066 O.3   147 MOH  -0.6830 
 878 C       -6.2668    -7.1094     1.9664 C.3   147 MOH   0.0850 
 879 H       -5.7991    -7.8864     2.5698 H     147 MOH   0.0600 
 880 H       -6.8057    -6.4317     2.6297 H     147 MOH   0.0600 
 881 H       -5.4775    -6.5427     1.4737 H     147 MOH   0.0600 
 882 H       -7.4277    -6.9258     0.4465 H     147 MOH   0.4180 
 883 O       -7.9717    -1.6470     3.0895 O.3   148 MOH  -0.6830 
 884 C       -7.9547    -2.8791     3.7810 C.3   148 MOH   0.0850 
 885 H       -7.6448    -3.6946     3.1272 H     148 MOH   0.0600 
 886 H       -8.9477    -3.1108     4.1663 H     148 MOH   0.0600 
 887 H       -7.2654    -2.8335     4.6240 H     148 MOH   0.0600 
 888 H       -8.3236    -0.9824     3.6980 H     148 MOH   0.4180 
 889 O       -8.8422   -10.4823    -5.3799 O.3   149 MOH  -0.6830 
 890 C       -8.8688   -11.6853    -6.1202 C.3   149 MOH   0.0850 
 891 H       -8.4493   -11.5326    -7.1153 H     149 MOH   0.0600 
 892 H       -9.8948   -12.0365    -6.2290 H     149 MOH   0.0600 
 893 H       -8.2933   -12.4639    -5.6213 H     149 MOH   0.0600 
 894 H       -9.3500    -9.8272    -5.8793 H     149 MOH   0.4180 
 895 O       -1.2860   -12.4045    11.2070 O.3   150 MOH  -0.6830 
 896 C       -0.4979   -12.5995    12.3672 C.3   150 MOH   0.0850 
 897 H       -0.3255   -11.6486    12.8708 H     150 MOH   0.0600 
 898 H        0.4711   -13.0294    12.1101 H     150 MOH   0.0600 
 899 H       -0.9941   -13.2683    13.0703 H     150 MOH   0.0600 
 900 H       -1.4283   -13.2616    10.7804 H     150 MOH   0.4180 
 901 O      -11.0649   -16.9608    18.8490 O.3   151 MOH  -0.6830 
 902 C      -10.5300   -18.1724    19.3407 C.3   151 MOH   0.0850 
 903 H      -10.5646   -18.1904    20.4304 H     151 MOH   0.0600 
 904 H       -9.4916   -18.2845    19.0277 H     151 MOH   0.0600 
 905 H      -11.0976   -19.0240    18.9639 H     151 MOH   0.0600 
 906 H      -10.5149   -16.2375    19.1697 H     151 MOH   0.4180 
 907 O        3.7533     6.2326     4.1554 O.3   152 MOH  -0.6830 
 908 C        3.7025     7.2375     5.1522 C.3   152 MOH   0.0850 
 909 H        4.6598     7.3192     5.6678 H     152 MOH   0.0600 
 910 H        2.9399     7.0082     5.8957 H     152 MOH   0.0600 
 911 H        3.4689     8.2075     4.7110 H     152 MOH   0.0600 
 912 H        4.4211     6.4923     3.5067 H     152 MOH   0.4180 
 913 O       -9.8666    -8.8850     6.1168 O.3   153 MOH  -0.6830 
 914 C      -10.9178    -8.0349     5.7008 C.3   153 MOH   0.0850 
 915 H      -11.7580    -8.6171     5.3208 H     153 MOH   0.0600 
 916 H      -10.5800    -7.3632     4.9104 H     153 MOH   0.0600 
 917 H      -11.2717    -7.4314     6.5373 H     153 MOH   0.0600 
 918 H       -9.5479    -9.3640     5.3478 H     153 MOH   0.4180 
 919 O      -11.2460     8.7114    10.4617 O.3   154 MOH  -0.6830 
 920 C      -11.4900     9.5311    11.5922 C.3   154 MOH   0.0850 
 921 H      -11.5513    10.5784    11.2938 H     154 MOH   0.0600 
 922 H      -10.6954     9.4343    12.3329 H     154 MOH   0.0600 
 923 H      -12.4337     9.2605    12.0675 H     154 MOH   0.0600 
 924 H      -12.0025     8.8326     9.8668 H     154 MOH   0.4180 
 925 O       -1.5895   -14.7052     9.7438 O.3   155 MOH  -0.6830 
 926 C       -2.8703   -14.7686     9.1482 C.3   155 MOH   0.0850 
 927 H       -3.5157   -13.9732     9.5210 H     155 MOH   0.0600 
 928 H       -3.3466   -15.7268     9.3588 H     155 MOH   0.0600 
 929 H       -2.7862   -14.6637     8.0666 H     155 MOH   0.0600 
 930 H       -1.0256   -15.3164     9.2522 H     155 MOH   0.4180 
 931 O        1.4801     7.1184    17.8254 O.3   156 MOH  -0.6830 
 932 C        0.2615     6.4194    18.0101 C.3   156 MOH   0.0850 
 933 H        0.2270     5.5357    17.3712 H     156 MOH   0.0600 
 934 H       -0.5863     7.0550    17.7497 H     156 MOH   0.0600 
 935 H        0.1478     6.1003    19.0468 H     156 MOH   0.0600 
 936 H        1.5188     7.3690    16.8890 H     156 MOH   0.4180 
 937 O        6.7346   -13.6089     9.7668 O.3   157 MOH  -0.6830 
 938 C        7.1244   -12.4341     9.0794 C.3   157 MOH   0.0850 
 939 H        7.5480   -12.6814     8.1055 H     157 MOH   0.0600 
 940 H        7.8766   -11.8844     9.6457 H     157 MOH   0.0600 
 941 H        6.2694   -11.7775     8.9218 H     157 MOH   0.0600 
 942 H        6.3664   -13.3507    10.6251 H     157 MOH   0.4180 
 943 O      -10.4533   -11.9543    10.7055 O.3   158 MOH  -0.6830 
 944 C      -11.1523   -11.3938    11.7979 C.3   158 MOH   0.0850 
 945 H      -10.8716   -10.3491    11.9345 H     158 MOH   0.0600 
 946 H      -10.9235   -11.9360    12.7159 H     158 MOH   0.0600 
 947 H      -12.2286   -11.4398    11.6297 H     158 MOH   0.0600 
 948 H       -9.5140   -11.9258    10.9093 H     158 MOH   0.4180 
 949 O       -8.5940   -10.3435     4.0629 O.3   159 MOH  -0.6830 
 950 C       -7.4261    -9.6153     4.3960 C.3   159 MOH   0.0850 
 951 H       -7.5502    -8.5731     4.1033 H     159 MOH   0.0600 
 952 H       -6.5613   -10.0207     3.8707 H     159 MOH   0.0600 
 953 H       -7.2247    -9.6481     5.4671 H     159 MOH   0.0600 
 954 H       -8.6388   -10.3401     3.0958 H     159 MOH   0.4180 
 955 O        4.8434   -15.8761     6.1802 O.3   160 MOH  -0.6830 
 956 C        5.1784   -15.0096     7.2460 C.3   160 MOH   0.0850 
 957 H        6.2471   -14.7927     7.2376 H     160 MOH   0.0600 
 958 H        4.9320   -15.4652     8.2059 H     160 MOH   0.0600 
 959 H        4.6351   -14.0678     7.1643 H     160 MOH   0.0600 
 960 H        5.3575   -16.6870     6.2891 H     160 MOH   0.4180 
 961 O       24.4297   -16.0947    18.9789 O.3   161 MOH  -0.6830 
 962 C       25.8311   -16.2855    18.9773 C.3   161 MOH   0.0850 
 963 H       26.0816   -17.3004    18.6669 H     161 MOH   0.0600 
 964 H       26.2455   -16.1216    19.9724 H     161 MOH   0.0600 
 965 H       26.3156   -15.5923    18.2887 H     161 MOH   0.0600 
 966 H       24.1050   -16.2878    18.0975 H     161 MOH   0.4180 
 967 O       10.5540    -2.1209    -7.4869 O.3   162 MOH  -0.6830 
 968 C       10.6045    -2.0633    -8.8980 C.3   162 MOH   0.0850 
 969 H       11.6345    -2.0650    -9.2528 H     162 MOH   0.0600 
 970 H       10.1136    -1.1601    -9.2619 H     162 MOH   0.0600 
 971 H       10.0945    -2.9256    -9.3253 H     162 MOH   0.0600 
 972 H        9.6171    -2.1473    -7.2518 H     162 MOH   0.4180 
 973 O       -9.7649     9.8620    -0.1260 O.3   163 MOH  -0.6830 
 974 C      -10.0468     8.7611    -0.9677 C.3   163 MOH   0.0850 
 975 H       -9.2480     8.6272    -1.6974 H     163 MOH   0.0600 
 976 H      -10.9776     8.9179    -1.5138 H     163 MOH   0.0600 
 977 H      -10.1408     7.8451    -0.3844 H     163 MOH   0.0600 
 978 H       -9.6824    10.6413    -0.6868 H     163 MOH   0.4180 
 979 O       -1.0413   -16.8241    16.2542 O.3   164 MOH  -0.6830 
 980 C       -1.4835   -16.6140    14.9273 C.3   164 MOH   0.0850 
 981 H       -1.4612   -17.5497    14.3675 H     164 MOH   0.0600 
 982 H       -0.8500   -15.8890    14.4161 H     164 MOH   0.0600 
 983 H       -2.5086   -16.2405    14.9235 H     164 MOH   0.0600 
 984 H       -1.6584   -17.4506    16.6580 H     164 MOH   0.4180 
 985 O        4.4910     1.8297    14.5805 O.3   165 MOH  -0.6830 
 986 C        5.3935     1.7280    15.6664 C.3   165 MOH   0.0850 
 987 H        4.8495     1.6961    16.6112 H     165 MOH   0.0600 
 988 H        6.0705     2.5834    15.6875 H     165 MOH   0.0600 
 989 H        5.9918     0.8197    15.5851 H     165 MOH   0.0600 
 990 H        3.8913     1.0668    14.6235 H     165 MOH   0.4180 
 991 O        7.5066   -18.8623    21.8135 O.3   166 MOH  -0.6830 
 992 C        6.1099   -18.7257    21.9845 C.3   166 MOH   0.0850 
 993 H        5.8838   -17.8729    22.6261 H     166 MOH   0.0600 
 994 H        5.6868   -19.6217    22.4391 H     166 MOH   0.0600 
 995 H        5.6234   -18.5657    21.0214 H     166 MOH   0.0600 
 996 H        7.8165   -18.0656    21.3589 H     166 MOH   0.4180 
 997 O      -10.8159     6.1593    11.3817 O.3   167 MOH  -0.6830 
 998 C      -11.2442     5.2561    10.3791 C.3   167 MOH   0.0850 
 999 H      -12.2954     5.4205    10.1376 H     167 MOH   0.0600 
1000 H      -11.1256     4.2240    10.7099 H     167 MOH   0.0600 
1001 H      -10.6631     5.3919     9.4662 H     167 MOH   0.0600 
1002 H      -10.9760     7.0509    11.0467 H     167 MOH   0.4180 
1003 O        1.7217   -11.0566    14.5163 O.3   168 MOH  -0.6830 
1004 C        1.6954   -10.3197    15.7228 C.3   168 MOH   0.0850 
1005 H        1.1281    -9.3978    15.5961 H     168 MOH   0.0600 
1006 H        2.7065   -10.0550    16.0333 H     168 MOH   0.0600 
1007 H        1.2306   -10.9004    16.5199 H     168 MOH   0.0600 
1008 H        2.1089   -10.4909    13.8387 H     168 MOH   0.4180 
1009 O      -10.8157    -5.6320    11.4956 O.3   169 MOH  -0.6830 
1010 C      -10.9510    -5.9692    10.1271 C.3   169 MOH   0.0850 
1011 H      -10.2836    -5.3632     9.5152 H     169 MOH   0.0600 
1012 H      -11.9734    -5.8035     9.7859 H     169 MOH   0.0600 
1013 H      -10.7051    -7.0176     9.9612 H     169 MOH   0.0600 
1014 H      -11.1121    -4.7254    11.6106 H     169 MOH   0.4180 
1015 O       -2.9734   -18.5719    17.1063 O.3   170 MOH  -0.6830 
1016 C       -4.1435   -17.7965    17.2823 C.3   170 MOH   0.0850 
1017 H       -3.8882   -16.7735    17.5612 H     170 MOH   0.0600 
1018 H       -4.7685   -18.2218    18.0683 H     170 MOH   0.0600 
1019 H       -4.7247   -17.7645    16.3600 H     170 MOH   0.0600 
1020 H       -3.2426   -19.4765    16.8960 H     170 MOH   0.4180 
1021 O        2.0917   -14.7025    19.6434 O.3   171 MOH  -0.6830 
1022 C        2.9912   -13.6377    19.4125 C.3   171 MOH   0.0850 
1023 H        2.4545   -12.7575    19.0571 H     171 MOH   0.0600 
1024 H        3.7266   -13.9191    18.6583 H     171 MOH   0.0600 
1025 H        3.5208   -13.3706    20.3259 H     171 MOH   0.0600 
1026 H        1.6389   -14.8845    18.8110 H     171 MOH   0.4180 
1027 O        6.4012     3.6770     7.9361 O.3   172 MOH  -0.6830 
1028 C        5.0363     3.5106     7.5941 C.3   172 MOH   0.0850 
1029 H        4.9089     2.6545     6.9330 H     172 MOH   0.0600 
1030 H        4.6470     4.3930     7.0852 H     172 MOH   0.0600 
1031 H        4.4360     3.3399     8.4879 H     172 MOH   0.0600 
1032 H        6.6255     2.9505     8.5379 H     172 MOH   0.4180 
1033 O       16.5007    -4.9156    16.2062 O.3   173 MOH  -0.6830 
1034 C       15.4016    -5.4397    15.4946 C.3   173 MOH   0.0850 
1035 H       15.6604    -6.4040    15.0574 H     173 MOH   0.0600 
1036 H       15.1065    -4.7625    14.6937 H     173 MOH   0.0600 
1037 H       14.5499    -5.5848    16.1596 H     173 MOH   0.0600 
1038 H       16.7383    -5.5629    16.8800 H     173 MOH   0.4180 
1039 O       12.5080   -10.3241    12.4575 O.3   174 MOH  -0.6830 
1040 C       12.9413   -10.8940    11.2351 C.3   174 MOH   0.0850 
1041 H       12.2832   -10.5967    10.4185 H     174 MOH   0.0600 
1042 H       12.9468   -11.9831    11.2963 H     174 MOH   0.0600 
1043 H       13.9487   -10.5631    10.9884 H     174 MOH   0.0600 
1044 H       13.1886   -10.5025    13.1214 H     174 MOH   0.4180 
1045 O       27.2439    -7.3532   -19.4223 O.3   175 MOH  -0.6830 
1046 C       26.7876    -6.1493   -20.0039 C.3   175 MOH   0.0850 
1047 H       25.7729    -6.2720   -20.3846 H     175 MOH   0.0600 
1048 H       27.4336    -5.8524   -20.8309 H     175 MOH   0.0600 
1049 H       26.7825    -5.3486   -19.2634 H     175 MOH   0.0600 
1050 H       26.6357    -7.5802   -18.7071 H     175 MOH   0.4180 
1051 O       23.9885   -12.1556    21.3781 O.3   176 MOH  -0.6830 
1052 C       24.3794   -13.4433    20.9438 C.3   176 MOH   0.0850 
1053 H       24.7581   -13.4032    19.9223 H     176 MOH   0.0600 
1054 H       23.5353   -14.1335    20.9679 H     176 MOH   0.0600 
1055 H       25.1666   -13.8451    21.5818 H     176 MOH   0.0600 
1056 H       23.7264   -12.2133    22.2996 H     176 MOH   0.4180 
1057 O       -3.1670   -12.1908     3.2868 O.3   177 MOH  -0.6830 
1058 C       -4.1389   -13.2174     3.2825 C.3   177 MOH   0.0850 
1059 H       -4.7709   -13.1417     2.3973 H     177 MOH   0.0600 
1060 H       -4.7736   -13.1475     4.1650 H     177 MOH   0.0600 
1061 H       -3.6639   -14.1991     3.2830 H     177 MOH   0.0600 
1062 H       -2.5397   -12.3780     3.9973 H     177 MOH   0.4180 
1063 O        1.3685    10.6066   -14.4662 O.3   178 MOH  -0.6830 
1064 C        2.6503    10.0519   -14.2268 C.3   178 MOH   0.0850 
1065 H        3.3965    10.8379   -14.1057 H     178 MOH   0.0600 
1066 H        2.9582     9.4154   -15.0576 H     178 MOH   0.0600 
1067 H        2.6459     9.4484   -13.3182 H     178 MOH   0.0600 
1068 H        0.7371     9.8800   -14.5307 H     178 MOH   0.4180 
1069 O       -9.7657     4.7778    16.1894 O.3   179 MOH  -0.6830 
1070 C       -8.8060     5.6787    16.7041 C.3   179 MOH   0.0850 
1071 H       -8.0350     5.8829    15.9602 H     179 MOH   0.0600 
1072 H       -8.3270     5.2625    17.5909 H     179 MOH   0.0600 
1073 H       -9.2782     6.6223    16.9798 H     179 MOH   0.0600 
1074 H      -10.1565     5.1742    15.4020 H     179 MOH   0.4180 
1075 O       -2.6671    -3.9850     4.1012 O.3   180 MOH  -0.6830 
1076 C       -3.0788    -2.8966     4.9069 C.3   180 MOH   0.0850 
1077 H       -2.2428    -2.2245     5.0960 H     180 MOH   0.0600 
1078 H       -3.4513    -3.2480     5.8695 H     180 MOH   0.0600 
1079 H       -3.8715    -2.3269     4.4205 H     180 MOH   0.0600 
1080 H       -2.0201    -4.4950     4.6084 H     180 MOH   0.4180 
1081 O       -3.0118     5.1194     4.0787 O.3   181 MOH  -0.6830 
1082 C       -3.0623     5.8447     2.8682 C.3   181 MOH   0.0850 
1083 H       -2.3672     5.4295     2.1383 H     181 MOH   0.0600 
1084 H       -2.7989     6.8886     3.0406 H     181 MOH   0.0600 
1085 H       -4.0659     5.8146     2.4430 H     181 MOH   0.0600 
1086 H       -3.6343     5.5336     4.6870 H     181 MOH   0.4180 
1087 O       -9.0755     0.0405     4.9412 O.3   182 MOH  -0.6830 
1088 C      -10.3968    -0.4095     5.1794 C.3   182 MOH   0.0850 
1089 H      -10.5108    -1.4611     4.9163 H     182 MOH   0.0600 
1090 H      -11.1144     0.1590     4.5901 H     182 MOH   0.0600 
1091 H      -10.6553    -0.2930     6.2313 H     182 MOH   0.0600 
1092 H       -9.0193     0.9590     5.2241 H     182 MOH   0.4180 
1093 O       -0.0660   -16.2717     8.0337 O.3   183 MOH  -0.6830 
1094 C        1.3092   -15.9409     8.0280 C.3   183 MOH   0.0850 
1095 H        1.5440   -15.2551     8.8423 H     183 MOH   0.0600 
1096 H        1.5871   -15.4673     7.0853 H     183 MOH   0.0600 
1097 H        1.9177   -16.8360     8.1511 H     183 MOH   0.0600 
1098 H       -0.2382   -16.8014     7.2477 H     183 MOH   0.4180 
1099 O       -7.6716    -5.5477    -0.5978 O.3   184 MOH  -0.6830 
1100 C       -8.7787    -5.7334    -1.4579 C.3   184 MOH   0.0850 
1101 H       -9.6645    -6.0292    -0.8964 H     184 MOH   0.0600 
1102 H       -8.5733    -6.5071    -2.1970 H     184 MOH   0.0600 
1103 H       -9.0044    -4.8081    -1.9850 H     184 MOH   0.0600 
1104 H       -6.9114    -5.2892    -1.1308 H     184 MOH   0.4180 
1105 O       11.4318    18.2295   -18.4356 O.3   185 MOH  -0.6830 
1106 C       11.5369    18.9713   -17.2392 C.3   185 MOH   0.0850 
1107 H       10.7078    18.7327   -16.5726 H     185 MOH   0.0600 
1108 H       11.5076    20.0405   -17.4527 H     185 MOH   0.0600 
1109 H       12.4722    18.7450   -16.7271 H     185 MOH   0.0600 
1110 H       10.6079    18.4880   -18.8627 H     185 MOH   0.4180 
1111 O        0.3568   -11.1045     9.4533 O.3   186 MOH  -0.6830 
1112 C        0.1560   -11.8865     8.2890 C.3   186 MOH   0.0850 
1113 H       -0.9013   -11.8996     8.0210 H     186 MOH   0.0600 
1114 H        0.4706   -12.9164     8.4614 H     186 MOH   0.0600 
1115 H        0.7197   -11.4897     7.4438 H     186 MOH   0.0600 
1116 H       -0.2034   -11.4903    10.1441 H     186 MOH   0.4180 
1117 O       -8.6936    -8.4647     8.5962 O.3   187 MOH  -0.6830 
1118 C       -7.2951    -8.5425     8.4063 C.3   187 MOH   0.0850 
1119 H       -7.0207    -9.4894     7.9410 H     187 MOH   0.0600 
1120 H       -6.7758    -8.4670     9.3620 H     187 MOH   0.0600 
1121 H       -6.9503    -7.7310     7.7656 H     187 MOH   0.0600 
1122 H       -9.1263    -8.5725     7.7414 H     187 MOH   0.4180 
1123 O      -10.9012    -3.3054    -3.1896 O.3   188 MOH  -0.6830 
1124 C      -11.9417    -4.1032    -2.6547 C.3   188 MOH   0.0850 
1125 H      -11.6130    -4.6024    -1.7428 H     188 MOH   0.0600 
1126 H      -12.2550    -4.8628    -3.3718 H     188 MOH   0.0600 
1127 H      -12.8072    -3.4909    -2.4015 H     188 MOH   0.0600 
1128 H      -10.6561    -2.6610    -2.5100 H     188 MOH   0.4180 
1129 O       -7.0899   -13.7698    13.2430 O.3   189 MOH  -0.6830 
1130 C       -7.5251   -13.4417    14.5504 C.3   189 MOH   0.0850 
1131 H       -7.1415   -12.4643    14.8467 H     189 MOH   0.0600 
1132 H       -7.1728   -14.1790    15.2737 H     189 MOH   0.0600 
1133 H       -8.6146   -13.4094    14.5947 H     189 MOH   0.0600 
1134 H       -7.4224   -13.0891    12.6430 H     189 MOH   0.4180 
1135 O        4.6994    10.1031     6.8475 O.3   190 MOH  -0.6830 
1136 C        5.9852    10.1730     6.2631 C.3   190 MOH   0.0850 
1137 H        6.6841    10.6684     6.9382 H     190 MOH   0.0600 
1138 H        5.9548    10.7279     5.3247 H     190 MOH   0.0600 
1139 H        6.3675     9.1733     6.0579 H     190 MOH   0.0600 
1140 H        4.7801     9.5894     7.6634 H     190 MOH   0.4180 
1141 O       -1.0145    -8.8228     8.7737 O.3   191 MOH  -0.6830 
1142 C       -0.5171    -7.6664     9.4198 C.3   191 MOH   0.0850 
1143 H        0.4795    -7.4181     9.0523 H     191 MOH   0.0600 
1144 H       -0.4563    -7.8232    10.4974 H     191 MOH   0.0600 
1145 H       -1.1711    -6.8142     9.2348 H     191 MOH   0.0600 
1146 H       -0.4189    -9.5530     8.9768 H     191 MOH   0.4180 
1147 O       -7.7484   -11.8909    11.3658 O.3   192 MOH  -0.6830 
1148 C       -7.2446   -12.4710    10.1760 C.3   192 MOH   0.0850 
1149 H       -6.2422   -12.8701    10.3390 H     192 MOH   0.0600 
1150 H       -7.1954   -11.7295     9.3778 H     192 MOH   0.0600 
1151 H       -7.8852   -13.2888     9.8440 H     192 MOH   0.0600 
1152 H       -7.1222   -11.2069    11.6452 H     192 MOH   0.4180 
1153 O       -8.9816     2.6275     6.0057 O.3   193 MOH  -0.6830 
1154 C       -7.8773     2.6553     6.8913 C.3   193 MOH   0.0850 
1155 H       -6.9598     2.3687     6.3757 H     193 MOH   0.0600 
1156 H       -8.0354     1.9650     7.7209 H     193 MOH   0.0600 
1157 H       -7.7395     3.6546     7.3058 H     193 MOH   0.0600 
1158 H       -9.7710     2.8319     6.5292 H     193 MOH   0.4180 
1159 O        0.2960    -6.6420    -2.9070 O.3   194 MOH  -0.6830 
1160 C        0.8812    -7.5470    -1.9927 C.3   194 MOH   0.0850 
1161 H        1.7973    -7.1257    -1.5762 H     194 MOH   0.0600 
1162 H        1.1264    -8.4912    -2.4802 H     194 MOH   0.0600 
1163 H        0.1962    -7.7481    -1.1689 H     194 MOH   0.0600 
1164 H        0.1447    -5.8166    -2.4232 H     194 MOH   0.4180 
1165 O       -8.6077    -5.4543     5.4302 O.3   195 MOH  -0.6830 
1166 C       -8.8366    -5.2072     6.8013 C.3   195 MOH   0.0850 
1167 H       -7.9419    -4.7864     7.2600 H     195 MOH   0.0600 
1168 H       -9.0818    -6.1337     7.3192 H     195 MOH   0.0600 
1169 H       -9.6587    -4.5061     6.9409 H     195 MOH   0.0600 
1170 H       -7.8107    -5.9918     5.3732 H     195 MOH   0.4180 
1171 O        2.8727   -10.1125     9.9048 O.3   196 MOH  -0.6830 
1172 C        3.6284   -10.3214     8.7290 C.3   196 MOH   0.0850 
1173 H        3.1478    -9.8392     7.8765 H     196 MOH   0.0600 
1174 H        3.7171   -11.3872     8.5153 H     196 MOH   0.0600 
1175 H        4.6302    -9.9060     8.8345 H     196 MOH   0.0600 
1176 H        1.9986   -10.4948     9.7548 H     196 MOH   0.4180 
1177 O        5.6514   -20.2206     2.2832 O.3   197 MOH  -0.6830 
1178 C        5.3491   -19.3033     3.3155 C.3   197 MOH   0.0850 
1179 H        6.1545   -18.5758     3.4218 H     197 MOH   0.0600 
1180 H        5.2217   -19.8203     4.2666 H     197 MOH   0.0600 
1181 H        4.4305   -18.7602     3.0900 H     197 MOH   0.0600 
1182 H        5.8634   -19.7042     1.4933 H     197 MOH   0.4180 
1183 O       -2.4052     3.1875     8.3207 O.3   198 MOH  -0.6830 
1184 C       -1.8824     2.8386     7.0509 C.3   198 MOH   0.0850 
1185 H       -1.7663     1.7578     6.9702 H     198 MOH   0.0600 
1186 H       -0.9092     3.3018     6.8862 H     198 MOH   0.0600 
1187 H       -2.5508     3.1699     6.2560 H     198 MOH   0.0600 
1188 H       -3.3046     2.8357     8.3646 H     198 MOH   0.4180 
1189 O      -11.7599    -5.1064     1.9650 O.3   199 MOH  -0.6830 
1190 C      -10.3572    -4.9819     2.1009 C.3   199 MOH   0.0850 
1191 H      -10.0398    -3.9611     1.8851 H     199 MOH   0.0600 
1192 H       -9.8409    -5.6542     1.4166 H     199 MOH   0.0600 
1193 H      -10.0465    -5.2341     3.1146 H     199 MOH   0.0600 
1194 H      -11.9966    -6.0264     2.1452 H     199 MOH   0.4180 
1195 O       28.8463     5.8991    14.0907 O.3   200 MOH  -0.6830 
1196 C       27.7449     5.0049    14.1152 C.3   200 MOH   0.0850 
1197 H       26.8909     5.4369    13.5918 H     200 MOH   0.0600 
1198 H       27.4399     4.7775    15.1365 H     200 MOH   0.0600 
1199 H       28.0027     4.0669    13.6213 H     200 MOH   0.0600 
1200 H       29.0529     6.0345    13.1553 H     200 MOH   0.4180 
1201 O       -0.9223    -7.2700    13.6065 O.3   201 MOH  -0.6830 
1202 C       -1.0467    -8.6688    13.4426 C.3   201 MOH   0.0850 
1203 H       -1.5797    -9.1053    14.2875 H     201 MOH   0.0600 
1204 H       -0.0649    -9.1378    13.3818 H     201 MOH   0.0600 
1205 H       -1.5936    -8.9044    12.5292 H     201 MOH   0.0600 
1206 H       -0.4878    -7.1074    14.4547 H     201 MOH   0.4180 
1207 O       -5.9536   -10.1088    12.3554 O.3   202 MOH  -0.6830 
1208 C       -4.9038   -10.2980    13.2846 C.3   202 MOH   0.0850 
1209 H       -4.2330    -9.4380    13.2847 H     202 MOH   0.0600 
1210 H       -4.3233   -11.1860    13.0315 H     202 MOH   0.0600 
1211 H       -5.3011   -10.4252    14.2923 H     202 MOH   0.0600 
1212 H       -6.4404    -9.3075    12.5988 H     202 MOH   0.4180 
1213 O       -1.1601    -3.9757     9.3105 O.3   203 MOH  -0.6830 
1214 C       -1.4858    -2.6017     9.3702 C.3   203 MOH   0.0850 
1215 H       -2.3687    -2.3941     8.7638 H     203 MOH   0.0600 
1216 H       -0.6615    -1.9926     8.9987 H     203 MOH   0.0600 
1217 H       -1.6988    -2.3077    10.3992 H     203 MOH   0.0600 
1218 H       -1.9443    -4.4638     9.6020 H     203 MOH   0.4180 
1219 O      -11.2261     3.1123     7.4965 O.3   204 MOH  -0.6830 
1220 C      -11.7490     1.8996     8.0059 C.3   204 MOH   0.0850 
1221 H      -12.4825     1.4815     7.3158 H     204 MOH   0.0600 
1222 H      -12.2426     2.0676     8.9638 H     204 MOH   0.0600 
1223 H      -10.9563     1.1656     8.1536 H     204 MOH   0.0600 
1224 H      -11.9663     3.7318     7.4236 H     204 MOH   0.4180 
1225 O        4.3539    -0.6546    21.5132 O.3   205 MOH  -0.6830 
1226 C        5.5823    -0.5395    22.2068 C.3   205 MOH   0.0850 
1227 H        6.0761    -1.5094    22.2818 H     205 MOH   0.0600 
1228 H        5.4177    -0.1554    23.2140 H     205 MOH   0.0600 
1229 H        6.2554     0.1455    21.6899 H     205 MOH   0.0600 
1230 H        3.9664     0.2229    21.4613 H     205 MOH   0.4180 
1231 O       -9.4067   -14.9199    19.7382 O.3   206 MOH  -0.6830 
1232 C       -8.3836   -14.8155    18.7677 C.3   206 MOH   0.0850 
1233 H       -8.4643   -13.8697    18.2309 H     206 MOH   0.0600 
1234 H       -8.4524   -15.6294    18.0452 H     206 MOH   0.0600 
1235 H       -7.4020   -14.8560    19.2414 H     206 MOH   0.0600 
1236 H       -9.3076   -14.1717    20.3407 H     206 MOH   0.4180 
1237 O        0.7808    -4.6783     7.5085 O.3   207 MOH  -0.6830 
1238 C        1.8901    -3.8227     7.7103 C.3   207 MOH   0.0850 
1239 H        2.7057    -4.0727     7.0310 H     207 MOH   0.0600 
1240 H        2.2603    -3.9107     8.7321 H     207 MOH   0.0600 
1241 H        1.6101    -2.7822     7.5417 H     207 MOH   0.0600 
1242 H        0.1202    -4.4479     8.1772 H     207 MOH   0.4180 
1243 O       -1.1427    -9.8288     0.1360 O.3   208 MOH  -0.6830 
1244 C       -1.3221   -10.2594    -1.1995 C.3   208 MOH   0.0850 
1245 H       -0.3660   -10.3422    -1.7169 H     208 MOH   0.0600 
1246 H       -1.9451    -9.5495    -1.7439 H     208 MOH   0.0600 
1247 H       -1.8094   -11.2345    -1.2268 H     208 MOH   0.0600 
1248 H       -2.0051    -9.8799     0.5685 H     208 MOH   0.4180 
1249 O       -1.4646   -12.6580     5.3593 O.3   209 MOH  -0.6830 
1250 C       -0.9151   -13.9577     5.4596 C.3   209 MOH   0.0850 
1251 H       -0.5397   -14.1334     6.4666 H     209 MOH   0.0600 
1252 H       -0.0882   -14.0876     4.7598 H     209 MOH   0.0600 
1253 H       -1.6736   -14.7120     5.2471 H     209 MOH   0.0600 
1254 H       -2.1723   -12.5890     6.0150 H     209 MOH   0.4180 
1255 O        3.8202    -3.3735   -18.9458 O.3   210 MOH  -0.6830 
1256 C        3.8613    -3.4029   -20.3599 C.3   210 MOH   0.0850 
1257 H        3.3049    -2.5626   -20.7764 H     210 MOH   0.0600 
1258 H        3.4275    -4.3258   -20.7442 H     210 MOH   0.0600 
1259 H        4.8903    -3.3342   -20.7103 H     210 MOH   0.0600 
1260 H        4.0284    -2.4695   -18.6834 H     210 MOH   0.4180 
1261 O       -6.1730   -15.4868     8.5894 O.3   211 MOH  -0.6830 
1262 C       -7.2616   -15.7301     7.7212 C.3   211 MOH   0.0850 
1263 H       -8.0785   -15.0380     7.9251 H     211 MOH   0.0600 
1264 H       -7.6357   -16.7468     7.8464 H     211 MOH   0.0600 
1265 H       -6.9557   -15.6023     6.6833 H     211 MOH   0.0600 
1266 H       -6.4841   -15.5845     9.4968 H     211 MOH   0.4180 
1267 O       -3.9646    16.3263    17.4500 O.3   212 MOH  -0.6830 
1268 C       -2.7867    15.6847    16.9983 C.3   212 MOH   0.0850 
1269 H       -1.9249    16.0191    17.5775 H     212 MOH   0.0600 
1270 H       -2.6017    15.9012    15.9457 H     212 MOH   0.0600 
1271 H       -2.8779    14.6039    17.1135 H     212 MOH   0.0600 
1272 H       -4.0921    16.0493    18.3688 H     212 MOH   0.4180 
1273 O        0.9976   -13.3200    -1.5121 O.3   213 MOH  -0.6830 
1274 C        1.6936   -12.4925    -0.5971 C.3   213 MOH   0.0850 
1275 H        1.0594   -11.6736    -0.2594 H     213 MOH   0.0600 
1276 H        2.5882   -12.0727    -1.0572 H     213 MOH   0.0600 
1277 H        2.0014   -13.0639     0.2792 H     213 MOH   0.0600 
1278 H        0.1553   -13.5694    -1.1040 H     213 MOH   0.4180 
1279 O        2.7414   -15.4027     4.4915 O.3   214 MOH  -0.6830 
1280 C        3.2346   -15.1859     3.1857 C.3   214 MOH   0.0850 
1281 H        3.8389   -16.0330     2.8591 H     214 MOH   0.0600 
1282 H        3.8554   -14.2899     3.1569 H     214 MOH   0.0600 
1283 H        2.4115   -15.0591     2.4817 H     214 MOH   0.0600 
1284 H        3.4942   -15.5389     5.0795 H     214 MOH   0.4180 
1285 O        0.4179   -12.1316    -3.9508 O.3   215 MOH  -0.6830 
1286 C        0.9654   -12.9739    -4.9460 C.3   215 MOH   0.0850 
1287 H        0.4947   -13.9575    -4.9189 H     215 MOH   0.0600 
1288 H        2.0351   -13.1079    -4.7845 H     215 MOH   0.0600 
1289 H        0.8183   -12.5512    -5.9397 H     215 MOH   0.0600 
1290 H        0.6091   -12.5417    -3.1011 H     215 MOH   0.4180 
1291 O       -5.3905    -5.1139    -2.1611 O.3   216 MOH  -0.6830 
1292 C       -4.3770    -5.7375    -1.3904 C.3   216 MOH   0.0850 
1293 H       -4.0250    -5.0657    -0.6085 H     216 MOH   0.0600 
1294 H       -3.5237    -6.0011    -2.0171 H     216 MOH   0.0600 
1295 H       -4.7483    -6.6462    -0.9156 H     216 MOH   0.0600 
1296 H       -4.9969    -4.3199    -2.5572 H     216 MOH   0.4180 
1297 O        5.4257    -8.7503     6.3182 O.3   217 MOH  -0.6830 
1298 C        5.3446    -9.8749     5.4646 C.3   217 MOH   0.0850 
1299 H        6.2933   -10.4132     5.4535 H     217 MOH   0.0600 
1300 H        5.1170    -9.5655     4.4442 H     217 MOH   0.0600 
1301 H        4.5630   -10.5587     5.7953 H     217 MOH   0.0600 
1302 H        6.1201    -8.1843     5.9668 H     217 MOH   0.4180 
1303 O        8.9470   -15.1350     9.9811 O.3   218 MOH  -0.6830 
1304 C        8.5644   -16.4656     9.6894 C.3   218 MOH   0.0850 
1305 H        7.7973   -16.8038    10.3878 H     218 MOH   0.0600 
1306 H        9.4182   -17.1402     9.7616 H     218 MOH   0.0600 
1307 H        8.1557   -16.5291     8.6800 H     218 MOH   0.0600 
1308 H        8.1531   -14.5863     9.8734 H     218 MOH   0.4180 
1309 O       -0.6062    -7.7156    -5.2377 O.3   219 MOH  -0.6830 
1310 C       -0.1367    -9.0497    -5.2771 C.3   219 MOH   0.0850 
1311 H       -0.5003    -9.6052    -4.4127 H     219 MOH   0.0600 
1312 H        0.9532    -9.0741    -5.2555 H     219 MOH   0.0600 
1313 H       -0.4765    -9.5569    -6.1806 H     219 MOH   0.0600 
1314 H       -0.2878    -7.3291    -4.4094 H     219 MOH   0.4180 
1315 O        7.3953    -6.1947    16.8617 O.3   220 MOH  -0.6830 
1316 C        7.1823    -4.8125    17.0772 C.3   220 MOH   0.0850 
1317 H        8.0513    -4.3599    17.5565 H     220 MOH   0.0600 
1318 H        6.3152    -4.6512    17.7176 H     220 MOH   0.0600 
1319 H        7.0048    -4.2994    16.1310 H     220 MOH   0.0600 
1320 H        8.1352    -6.2866    16.2495 H     220 MOH   0.4180 
1321 O        7.3121    -5.3252     7.9137 O.3   221 MOH  -0.6830 
1322 C        8.3013    -5.3226     8.9262 C.3   221 MOH   0.0850 
1323 H        7.9456    -4.7859     9.8045 H     221 MOH   0.0600 
1324 H        9.2165    -4.8387     8.5826 H     221 MOH   0.0600 
1325 H        8.5411    -6.3423     9.2268 H     221 MOH   0.0600 
1326 H        6.5494    -5.8162     8.2533 H     221 MOH   0.4180 
1327 O        3.3656     2.0053    21.1599 O.3   222 MOH  -0.6830 
1328 C        3.4862     1.9737    19.7476 C.3   222 MOH   0.0850 
1329 H        3.2490     0.9814    19.3600 H     222 MOH   0.0600 
1330 H        4.5036     2.2254    19.4455 H     222 MOH   0.0600 
1331 H        2.8048     2.6909    19.2876 H     222 MOH   0.0600 
1332 H        3.5576     2.9066    21.4485 H     222 MOH   0.4180 
1333 O        2.8026    -9.4143    12.5735 O.3   223 MOH  -0.6830 
1334 C        2.5511    -8.0240    12.6610 C.3   223 MOH   0.0850 
1335 H        2.3685    -7.7317    13.6960 H     223 MOH   0.0600 
1336 H        1.6739    -7.7543    12.0716 H     223 MOH   0.0600 
1337 H        3.4032    -7.4546    12.2876 H     223 MOH   0.0600 
1338 H        2.9084    -9.6393    11.6409 H     223 MOH   0.4180 
1339 O       23.5182    23.3552    16.3874 O.3   224 MOH  -0.6830 
1340 C       22.4209    22.4994    16.6676 C.3   224 MOH   0.0850 
1341 H       22.7664    21.5265    17.0197 H     224 MOH   0.0600 
1342 H       21.8155    22.3438    15.7734 H     224 MOH   0.0600 
1343 H       21.7790    22.9294    17.4384 H     224 MOH   0.0600 
1344 H       24.0374    22.9481    15.7026 H     224 MOH   0.4180 
1345 O       -3.4802    -9.9327     8.4382 O.3   225 MOH  -0.6830 
1346 C       -4.0025   -10.1630     9.7329 C.3   225 MOH   0.0850 
1347 H       -4.9828   -10.6345     9.6768 H     225 MOH   0.0600 
1348 H       -4.1074    -9.2234    10.2759 H     225 MOH   0.0600 
1349 H       -3.3413   -10.8141    10.3061 H     225 MOH   0.0600 
1350 H       -2.6313    -9.4793     8.5559 H     225 MOH   0.4180 
1351 O       -3.6718    18.8821    16.3681 O.3   226 MOH  -0.6830 
1352 C       -3.0837    18.7155    15.0909 C.3   226 MOH   0.0850 
1353 H       -3.7108    18.0875    14.4572 H     226 MOH   0.0600 
1354 H       -2.1042    18.2431    15.1759 H     226 MOH   0.0600 
1355 H       -2.9535    19.6802    14.5993 H     226 MOH   0.0600 
1356 H       -3.7795    18.0116    16.7652 H     226 MOH   0.4180 
1357 O        8.1094    -6.2371    12.3258 O.3   227 MOH  -0.6830 
1358 C        6.9563    -5.4229    12.4265 C.3   227 MOH   0.0850 
1359 H        6.4109    -5.6372    13.3459 H     227 MOH   0.0600 
1360 H        6.2868    -5.6031    11.5843 H     227 MOH   0.0600 
1361 H        7.2317    -4.3685    12.4270 H     227 MOH   0.0600 
1362 H        7.8051    -7.1480    12.1773 H     227 MOH   0.4180 
1363 O       -6.1415    -6.7392     5.3587 O.3   228 MOH  -0.6830 
1364 C       -5.2536    -5.6545     5.1898 C.3   228 MOH   0.0850 
1365 H       -5.7836    -4.7589     4.8670 H     228 MOH   0.0600 
1366 H       -4.5066    -5.8989     4.4355 H     228 MOH   0.0600 
1367 H       -4.7383    -5.4347     6.1257 H     228 MOH   0.0600 
1368 H       -5.6126    -7.4856     5.6717 H     228 MOH   0.4180 
1369 O        5.0427    -7.2523    16.0273 O.3   229 MOH  -0.6830 
1370 C        5.3804    -8.2936    15.1282 C.3   229 MOH   0.0850 
1371 H        4.4839    -8.7619    14.7226 H     229 MOH   0.0600 
1372 H        5.9663    -9.0612    15.6352 H     229 MOH   0.0600 
1373 H        5.9721    -7.9104    14.2960 H     229 MOH   0.0600 
1374 H        5.8706    -6.9097    16.3991 H     229 MOH   0.4180 
1375 O       -3.0695     0.4110     5.0312 O.3   230 MOH  -0.6830 
1376 C       -3.8137     1.2563     4.1766 C.3   230 MOH   0.0850 
1377 H       -4.8758     1.2019     4.4164 H     230 MOH   0.0600 
1378 H       -3.6798     0.9603     3.1369 H     230 MOH   0.0600 
1379 H       -3.4912     2.2932     4.2741 H     230 MOH   0.0600 
1380 H       -2.1371     0.5151     4.8145 H     230 MOH   0.4180 
1381 O       -3.4657   -10.1101     1.5657 O.3   231 MOH  -0.6830 
1382 C       -4.6881   -10.1978     0.8605 C.3   231 MOH   0.0850 
1383 H       -5.5250   -10.2598     1.5562 H     231 MOH   0.0600 
1384 H       -4.7035   -11.0870     0.2297 H     231 MOH   0.0600 
1385 H       -4.8323    -9.3218     0.2271 H     231 MOH   0.0600 
1386 H       -3.4061   -10.8837     2.1450 H     231 MOH   0.4180 
1387 O        0.1437    -9.1356     2.4699 O.3   232 MOH  -0.6830 
1388 C       -0.3201   -10.1391     3.3545 C.3   232 MOH   0.0850 
1389 H        0.0917   -10.0074     4.3551 H     232 MOH   0.0600 
1390 H       -0.0379   -11.1298     2.9966 H     232 MOH   0.0600 
1391 H       -1.4059   -10.1030     3.4272 H     232 MOH   0.0600 
1392 H       -0.2440    -9.3188     1.6054 H     232 MOH   0.4180 
1393 O       13.2227    -9.9614     5.8159 O.3   233 MOH  -0.6830 
1394 C       12.5258   -11.1735     5.5941 C.3   233 MOH   0.0850 
1395 H       11.5857   -11.1862     6.1452 H     233 MOH   0.0600 
1396 H       13.1219   -12.0292     5.9122 H     233 MOH   0.0600 
1397 H       12.3003   -11.2951     4.5344 H     233 MOH   0.0600 
1398 H       13.9433    -9.9219     5.1773 H     233 MOH   0.4180 
1399 O        0.3320    -6.8109    15.9936 O.3   234 MOH  -0.6830 
1400 C       -0.3815    -5.8391    16.7320 C.3   234 MOH   0.0850 
1401 H        0.2130    -4.9306    16.8243 H     234 MOH   0.0600 
1402 H       -0.6060    -6.2058    17.7350 H     234 MOH   0.0600 
1403 H       -1.3191    -5.5849    16.2367 H     234 MOH   0.0600 
1404 H        1.1319    -7.0223    16.4960 H     234 MOH   0.4180 
1405 O        2.1503     1.8210     8.9782 O.3   235 MOH  -0.6830 
1406 C        1.7809     1.4322     7.6722 C.3   235 MOH   0.0850 
1407 H        0.7434     1.6947     7.4730 H     235 MOH   0.0600 
1408 H        1.8918     0.3550     7.5492 H     235 MOH   0.0600 
1409 H        2.4067     1.9317     6.9331 H     235 MOH   0.0600 
1410 H        2.0770     2.7802     9.0330 H     235 MOH   0.4180 
1411 O       -3.5813   -12.3065     7.0292 O.3   236 MOH  -0.6830 
1412 C       -4.9061   -12.8065     7.0188 C.3   236 MOH   0.0850 
1413 H       -4.9525   -13.7740     6.5177 H     236 MOH   0.0600 
1414 H       -5.5781   -12.1189     6.5046 H     236 MOH   0.0600 
1415 H       -5.2719   -12.9368     8.0363 H     236 MOH   0.0600 
1416 H       -3.5797   -11.4868     7.5369 H     236 MOH   0.4180 
1417 O       -4.5648    -8.8095     6.1612 O.3   237 MOH  -0.6830 
1418 C       -3.9452    -9.5303     5.1142 C.3   237 MOH   0.0850 
1419 H       -4.3224   -10.5514     5.0809 H     237 MOH   0.0600 
1420 H       -2.8658    -9.5710     5.2635 H     237 MOH   0.0600 
1421 H       -4.1460    -9.0659     4.1491 H     237 MOH   0.0600 
1422 H       -4.2713    -9.1988     6.9927 H     237 MOH   0.4180 
1423 O       -0.8146     5.2705     8.9997 O.3   238 MOH  -0.6830 
1424 C       -1.1283     5.8486    10.2527 C.3   238 MOH   0.0850 
1425 H       -0.4823     6.7041    10.4520 H     238 MOH   0.0600 
1426 H       -0.9862     5.1252    11.0561 H     238 MOH   0.0600 
1427 H       -2.1635     6.1913    10.2709 H     238 MOH   0.0600 
1428 H       -1.4029     4.5141     8.8473 H     238 MOH   0.4180 
1429 O        7.9577    -7.8364    -2.8974 O.3   239 MOH  -0.6830 
1430 C        6.9781    -8.4207    -2.0570 C.3   239 MOH   0.0850 
1431 H        5.9971    -8.3913    -2.5326 H     239 MOH   0.0600 
1432 H        6.9116    -7.8909    -1.1060 H     239 MOH   0.0600 
1433 H        7.2234    -9.4628    -1.8496 H     239 MOH   0.0600 
1434 H        7.9962    -8.3645    -3.7072 H     239 MOH   0.4180 
1435 O       -7.7789    -2.3808     8.6854 O.3   240 MOH  -0.6830 
1436 C       -7.7568    -1.7148     7.4385 C.3   240 MOH   0.0850 
1437 H       -8.4075    -2.2205     6.7252 H     240 MOH   0.0600 
1438 H       -6.7475    -1.6910     7.0267 H     240 MOH   0.0600 
1439 H       -8.1123    -0.6898     7.5471 H     240 MOH   0.0600 
1440 H       -8.7027    -2.4203     8.9692 H     240 MOH   0.4180 
1441 O        9.2292    -6.5703    14.8335 O.3   241 MOH  -0.6830 
1442 C        9.6009    -7.9369    14.8415 C.3   241 MOH   0.0850 
1443 H       10.3694    -8.1329    14.0931 H     241 MOH   0.0600 
1444 H        8.7412    -8.5704    14.6178 H     241 MOH   0.0600 
1445 H        9.9938    -8.2230    15.8177 H     241 MOH   0.0600 
1446 H        8.8663    -6.3720    13.9633 H     241 MOH   0.4180 
1447 O       13.1340   -13.1430    -1.6221 O.3   242 MOH  -0.6830 
1448 C       12.9040   -14.1165    -2.6219 C.3   242 MOH   0.0850 
1449 H       12.5555   -15.0499    -2.1788 H     242 MOH   0.0600 
1450 H       13.8213   -14.3219    -3.1746 H     242 MOH   0.0600 
1451 H       12.1478   -13.7729    -3.3289 H     242 MOH   0.0600 
1452 H       13.3742   -12.3203    -2.0612 H     242 MOH   0.4180 
1453 O        4.2908    -4.8044    14.8625 O.3   243 MOH  -0.6830 
1454 C        2.9085    -4.5502    15.0117 C.3   243 MOH   0.0850 
1455 H        2.6471    -4.4455    16.0657 H     243 MOH   0.0600 
1456 H        2.3222    -5.3692    14.5951 H     243 MOH   0.0600 
1457 H        2.6310    -3.6330    14.4920 H     243 MOH   0.0600 
1458 H        4.4831    -5.6455    15.2823 H     243 MOH   0.4180 
1459 O       -6.0882    -4.3576     9.6922 O.3   244 MOH  -0.6830 
1460 C       -7.0143    -5.2629    10.2627 C.3   244 MOH   0.0850 
1461 H       -6.4977    -6.0829    10.7617 H     244 MOH   0.0600 
1462 H       -7.6625    -5.6882     9.4968 H     244 MOH   0.0600 
1463 H       -7.6453    -4.7562    10.9943 H     244 MOH   0.0600 
1464 H       -6.5961    -3.6302     9.3118 H     244 MOH   0.4180 
1465 O        3.6256     4.7063   -18.1727 O.3   245 MOH  -0.6830 
1466 C        2.8153     5.0447   -17.0587 C.3   245 MOH   0.0850 
1467 H        2.9262     4.3099   -16.2602 H     245 MOH   0.0600 
1468 H        1.7642     5.0879   -17.3458 H     245 MOH   0.0600 
1469 H        3.0940     6.0234   -16.6641 H     245 MOH   0.0600 
1470 H        3.4762     5.3888   -18.8460 H     245 MOH   0.4180 
1471 O       -7.5308    -7.9474    12.9054 O.3   246 MOH  -0.6830 
1472 C       -8.6119    -8.1618    12.0115 C.3   246 MOH   0.0850 
1473 H       -8.5197    -9.1202    11.4994 H     246 MOH   0.0600 
1474 H       -8.6436    -7.3828    11.2512 H     246 MOH   0.0600 
1475 H       -9.5640    -8.1478    12.5436 H     246 MOH   0.0600 
1476 H       -7.6970    -7.1328    13.3654 H     246 MOH   0.4180 
1477 O       19.4263   -14.9435    16.0936 O.3   247 MOH  -0.6830 
1478 C       18.8095   -14.0065    15.2326 C.3   247 MOH   0.0850 
1479 H       19.3441   -13.9510    14.2840 H     247 MOH   0.0600 
1480 H       18.8093   -13.0131    15.6835 H     247 MOH   0.0600 
1481 H       17.7769   -14.2908    15.0270 H     247 MOH   0.0600 
1482 H       20.3274   -14.6397    16.2607 H     247 MOH   0.4180 
1483 O       25.8224    -8.3346    11.0350 O.3   248 MOH  -0.6830 
1484 C       26.4303    -7.5485    12.0404 C.3   248 MOH   0.0850 
1485 H       26.4771    -6.5025    11.7352 H     248 MOH   0.0600 
1486 H       27.4473    -7.8918    12.2344 H     248 MOH   0.0600 
1487 H       25.8626    -7.6096    12.9690 H     248 MOH   0.0600 
1488 H       26.4057    -8.3293    10.2655 H     248 MOH   0.4180 
1489 O       -2.8396     1.3524    16.1518 O.3   249 MOH  -0.6830 
1490 C       -3.0896     2.7359    16.3011 C.3   249 MOH   0.0850 
1491 H       -2.4655     3.3145    15.6188 H     249 MOH   0.0600 
1492 H       -2.8735     3.0594    17.3197 H     249 MOH   0.0600 
1493 H       -4.1342     2.9627    16.0847 H     249 MOH   0.0600 
1494 H       -3.0161     1.1169    15.2406 H     249 MOH   0.4180 
1495 O        0.8569   -15.0653    17.1926 O.3   250 MOH  -0.6830 
1496 C        1.1218   -14.1812    16.1199 C.3   250 MOH   0.0850 
1497 H        0.2129   -13.6603    15.8166 H     250 MOH   0.0600 
1498 H        1.5047   -14.7303    15.2592 H     250 MOH   0.0600 
1499 H        1.8635   -13.4351    16.4068 H     250 MOH   0.0600 
1500 H        0.2088   -15.7152    16.8888 H     250 MOH   0.4180 
1501 O       19.3097   -18.9377    -3.2317 O.3   251 MOH  -0.6830 
1502 C       18.0852   -18.2712    -2.9830 C.3   251 MOH   0.0850 
1503 H       18.2629   -17.3043    -2.5115 H     251 MOH   0.0600 
1504 H       17.4518   -18.8612    -2.3198 H     251 MOH   0.0600 
1505 H       17.5402   -18.1014    -3.9126 H     251 MOH   0.0600 
1506 H       19.8612   -18.3535    -3.7364 H     251 MOH   0.4180 
1507 O       27.6579     6.4975    21.4637 O.3   252 MOH  -0.6830 
1508 C       27.7551     7.7161    20.7497 C.3   252 MOH   0.0850 
1509 H       27.6371     7.5463    19.6795 H     252 MOH   0.0600 
1510 H       28.7249     8.1857    20.9171 H     252 MOH   0.0600 
1511 H       26.9783     8.4118    21.0697 H     252 MOH   0.0600 
1512 H       26.7559     6.1666    21.3518 H     252 MOH   0.4180 
1513 O       25.6681     9.5026     1.5402 O.3   253 MOH  -0.6830 
1514 C       26.9823     9.6287     1.0297 C.3   253 MOH   0.0850 
1515 H       27.6309     8.8519     1.4356 H     253 MOH   0.0600 
1516 H       27.4064    10.5988     1.2915 H     253 MOH   0.0600 
1517 H       26.9841     9.5382    -0.0567 H     253 MOH   0.0600 
1518 H       25.1288    10.2126     1.1683 H     253 MOH   0.4180 
1519 O       -7.3608    15.2346     1.1100 O.3   254 MOH  -0.6830 
1520 C       -8.2615    14.8816     0.0779 C.3   254 MOH   0.0850 
1521 H       -8.9571    15.6990    -0.1177 H     254 MOH   0.0600 
1522 H       -8.8362    13.9963     0.3536 H     254 MOH   0.0600 
1523 H       -7.7215    14.6641    -0.8446 H     254 MOH   0.0600 
1524 H       -6.8572    16.0008     0.8109 H     254 MOH   0.4180 
1525 O      -11.0429     3.7708    -5.4270 O.3   255 MOH  -0.6830 
1526 C      -11.5223     2.5222    -5.8811 C.3   255 MOH   0.0850 
1527 H      -10.6960     1.8256    -6.0219 H     255 MOH   0.0600 
1528 H      -12.0422     2.6327    -6.8322 H     255 MOH   0.0600 
1529 H      -12.2187     2.0870    -5.1644 H     255 MOH   0.0600 
1530 H      -10.4536     4.1224    -6.0983 H     255 MOH   0.4180 
1531 O       -7.4796    12.1374    21.4734 O.3   256 MOH  -0.6830 
1532 C       -6.5142    11.9735    22.4963 C.3   256 MOH   0.0850 
1533 H       -5.9426    12.8914    22.6344 H     256 MOH   0.0600 
1534 H       -6.9907    11.7284    23.4467 H     256 MOH   0.0600 
1535 H       -5.8153    11.1756    22.2437 H     256 MOH   0.0600 
1536 H       -8.0072    12.9070    21.6966 H     256 MOH   0.4180 
1537 O        8.9939    11.5021    -3.2335 O.3   257 MOH  -0.6830 
1538 C        9.1769    12.4193    -2.1708 C.3   257 MOH   0.0850 
1539 H        8.9814    11.9349    -1.2141 H     257 MOH   0.0600 
1540 H        8.4924    13.2627    -2.2683 H     257 MOH   0.0600 
1541 H       10.1966    12.8067    -2.1598 H     257 MOH   0.0600 
1542 H        8.0682    11.2207    -3.2191 H     257 MOH   0.4180 
1543 O       25.9098     3.9257    -1.4382 O.3   258 MOH  -0.6830 
1544 C       26.0710     3.8950    -2.8453 C.3   258 MOH   0.0850 
1545 H       26.8341     4.6066    -3.1644 H     258 MOH   0.0600 
1546 H       25.1361     4.1484    -3.3464 H     258 MOH   0.0600 
1547 H       26.3768     2.9023    -3.1765 H     258 MOH   0.0600 
1548 H       25.2410     3.2789    -1.1955 H     258 MOH   0.4180 
1549 O        8.7953    10.4556    -9.9774 O.3   259 MOH  -0.6830 
1550 C        9.2717     9.2854    -9.3402 C.3   259 MOH   0.0850 
1551 H        8.6121     8.4416    -9.5468 H     259 MOH   0.0600 
1552 H        9.3203     9.4298    -8.2603 H     259 MOH   0.0600 
1553 H       10.2693     9.0289    -9.6980 H     259 MOH   0.0600 
1554 H        8.7479    10.2748   -10.9235 H     259 MOH   0.4180 
1555 O       -4.6812    15.8957    -4.5751 O.3   260 MOH  -0.6830 
1556 C       -4.6005    14.4832    -4.5467 C.3   260 MOH   0.0850 
1557 H       -5.4045    14.0641    -3.9402 H     260 MOH   0.0600 
1558 H       -3.6515    14.1671    -4.1122 H     260 MOH   0.0600 
1559 H       -4.6739    14.0656    -5.5514 H     260 MOH   0.0600 
1560 H       -4.5943    16.2012    -3.6613 H     260 MOH   0.4180 
1561 O       -9.0291    -3.7392    -5.2196 O.3   261 MOH  -0.6830 
1562 C       -7.9584    -4.5027    -4.6954 C.3   261 MOH   0.0850 
1563 H       -7.1729    -4.6314    -5.4407 H     261 MOH   0.0600 
1564 H       -8.3033    -5.4900    -4.3932 H     261 MOH   0.0600 
1565 H       -7.5222    -4.0109    -3.8252 H     261 MOH   0.0600 
1566 H       -9.7065    -3.6446    -4.5382 H     261 MOH   0.4180 
1567 O       -7.9028     3.4049     3.4955 O.3   262 MOH  -0.6830 
1568 C       -6.8123     4.2663     3.7529 C.3   262 MOH   0.0850 
1569 H       -6.0224     3.7420     4.2914 H     262 MOH   0.0600 
1570 H       -7.1358     5.1129     4.3564 H     262 MOH   0.0600 
1571 H       -6.3948     4.6498     2.8218 H     262 MOH   0.0600 
1572 H       -8.2807     3.1397     4.3369 H     262 MOH   0.4180 
1573 O       -3.4600    11.0468    -6.7652 O.3   263 MOH  -0.6830 
1574 C       -2.1648    11.4527    -7.1734 C.3   263 MOH   0.0850 
1575 H       -2.2210    12.1291    -8.0274 H     263 MOH   0.0600 
1576 H       -1.5612    10.5924    -7.4649 H     263 MOH   0.0600 
1577 H       -1.6474    11.9685    -6.3636 H     263 MOH   0.0600 
1578 H       -3.8736    10.5754    -7.5005 H     263 MOH   0.4180 
1579 O        5.9713     0.6508   -12.5565 O.3   264 MOH  -0.6830 
1580 C        4.9318    -0.0747   -13.1906 C.3   264 MOH   0.0850 
1581 H        4.5803    -0.8825   -12.5469 H     264 MOH   0.0600 
1582 H        5.2772    -0.5116   -14.1280 H     264 MOH   0.0600 
1583 H        4.0857     0.5794   -13.4065 H     264 MOH   0.0600 
1584 H        5.5949     1.0403   -11.7571 H     264 MOH   0.4180 
1585 O       23.9347     5.0597     6.8953 O.3   265 MOH  -0.6830 
1586 C       23.9427     5.1264     5.4773 C.3   265 MOH   0.0850 
1587 H       24.5198     4.3022     5.0539 H     265 MOH   0.0600 
1588 H       24.3854     6.0631     5.1345 H     265 MOH   0.0600 
1589 H       22.9280     5.0650     5.0819 H     265 MOH   0.0600 
1590 H       23.4116     4.3032     7.1428 H     265 MOH   0.4180 
1591 O       -4.2098    11.2632    -4.1415 O.3   266 MOH  -0.6830 
1592 C       -3.0452    11.2454    -3.3373 C.3   266 MOH   0.0850 
1593 H       -3.2886    11.4659    -2.2974 H     266 MOH   0.0600 
1594 H       -2.3252    11.9869    -3.6853 H     266 MOH   0.0600 
1595 H       -2.5704    10.2645    -3.3786 H     266 MOH   0.0600 
1596 H       -3.9270    11.1961    -5.0642 H     266 MOH   0.4180 
1597 O       -1.6141     9.8327   -12.3019 O.3   267 MOH  -0.6830 
1598 C       -0.6727    10.7563   -11.7864 C.3   267 MOH   0.0850 
1599 H       -0.9873    11.1303   -10.8116 H     267 MOH   0.0600 
1600 H       -0.5605    11.6076   -12.4591 H     267 MOH   0.0600 
1601 H        0.3036    10.2847   -11.6713 H     267 MOH   0.0600 
1602 H       -1.2893     9.5205   -13.1481 H     267 MOH   0.4180 
1603 O       -9.6681     7.7433    -4.4716 O.3   268 MOH  -0.6830 
1604 C       -9.8907     6.4844    -3.8664 C.3   268 MOH   0.0850 
1605 H       -9.5222     6.4835    -2.8424 H     268 MOH   0.0600 
1606 H       -9.3713     5.6948    -4.4092 H     268 MOH   0.0600 
1607 H      -10.9548     6.2473    -3.8470 H     268 MOH   0.0600 
1608 H       -8.7185     7.8863    -4.5419 H     268 MOH   0.4180 
1609 O       -4.4669     3.3863   -14.7969 O.3   269 MOH  -0.6830 
1610 C       -4.2100     1.9952   -14.7744 C.3   269 MOH   0.0850 
1611 H       -5.1451     1.4341   -14.7479 H     269 MOH   0.0600 
1612 H       -3.6278     1.7310   -13.8905 H     269 MOH   0.0600 
1613 H       -3.6503     1.6896   -15.6597 H     269 MOH   0.0600 
1614 H       -4.9389     3.6090   -13.9833 H     269 MOH   0.4180 
1615 O        0.2203    -1.4559    -5.9323 O.3   270 MOH  -0.6830 
1616 C        1.5840    -1.8443    -5.9182 C.3   270 MOH   0.0850 
1617 H        2.1314    -1.3492    -6.7214 H     270 MOH   0.0600 
1618 H        1.6794    -2.9221    -6.0548 H     270 MOH   0.0600 
1619 H        2.0581    -1.5811    -4.9729 H     270 MOH   0.0600 
1620 H        0.1833    -0.4894    -5.8667 H     270 MOH   0.4180 
1621 O      -10.4870     0.6373    -8.5247 O.3   271 MOH  -0.6830 
1622 C       -9.3551    -0.0773    -8.0745 C.3   271 MOH   0.0850 
1623 H       -9.3909    -1.1125    -8.4136 H     271 MOH   0.0600 
1624 H       -9.3186    -0.0747    -6.9852 H     271 MOH   0.0600 
1625 H       -8.4377     0.3755    -8.4519 H     271 MOH   0.0600 
1626 H      -11.2661     0.2685    -8.0946 H     271 MOH   0.4180 
1627 O       -9.0726    15.5298   -15.5316 O.3   272 MOH  -0.6830 
1628 C      -10.2396    16.3330   -15.5904 C.3   272 MOH   0.0850 
1629 H      -11.0818    15.7561   -15.9743 H     272 MOH   0.0600 
1630 H      -10.0838    17.1837   -16.2550 H     272 MOH   0.0600 
1631 H      -10.5118    16.7132   -14.6053 H     272 MOH   0.0600 
1632 H       -8.9574    15.1583   -16.4127 H     272 MOH   0.4180 
1633 O       -0.6674     8.7457   -14.7461 O.3   273 MOH  -0.6830 
1634 C       -1.0820     9.0715   -16.0616 C.3   273 MOH   0.0850 
1635 H       -0.7634    10.0760   -16.3374 H     273 MOH   0.0600 
1636 H       -2.1688     9.0234   -16.1423 H     273 MOH   0.0600 
1637 H       -0.6635     8.3666   -16.7808 H     273 MOH   0.0600 
1638 H       -1.0973     7.9027   -14.5357 H     273 MOH   0.4180 
1639 O       25.0438     8.5762     4.0514 O.3   274 MOH  -0.6830 
1640 C       25.9795     9.2286     4.8849 C.3   274 MOH   0.0850 
1641 H       25.8258     8.9531     5.9278 H     274 MOH   0.0600 
1642 H       25.8806    10.3109     4.7946 H     274 MOH   0.0600 
1643 H       26.9961     8.9535     4.6029 H     274 MOH   0.0600 
1644 H       25.2416     8.8287     3.1417 H     274 MOH   0.4180 
1645 O       -9.5699    12.0045    -1.8855 O.3   275 MOH  -0.6830 
1646 C      -10.8540    12.5824    -1.7581 C.3   275 MOH   0.0850 
1647 H      -11.2499    12.4259    -0.7538 H     275 MOH   0.0600 
1648 H      -11.5442    12.1358    -2.4751 H     275 MOH   0.0600 
1649 H      -10.8087    13.6556    -1.9470 H     275 MOH   0.0600 
1650 H       -9.2574    12.1876    -2.7810 H     275 MOH   0.4180 
1651 O       -4.8713     6.2603     5.7575 O.3   276 MOH  -0.6830 
1652 C       -4.7054     5.3691     6.8434 C.3   276 MOH   0.0850 
1653 H       -3.6443     5.2002     7.0222 H     276 MOH   0.0600 
1654 H       -5.1403     5.7713     7.7571 H     276 MOH   0.0600 
1655 H       -5.1786     4.4097     6.6326 H     276 MOH   0.0600 
1656 H       -5.7729     6.6080     5.7763 H     276 MOH   0.4180 
1657 O        8.3512     9.8253   -12.6242 O.3   277 MOH  -0.6830 
1658 C        7.5133    10.9225   -12.9405 C.3   277 MOH   0.0850 
1659 H        8.0992    11.8367   -13.0384 H     277 MOH   0.0600 
1660 H        6.7638    11.0727   -12.1627 H     277 MOH   0.0600 
1661 H        6.9898    10.7527   -13.8799 H     277 MOH   0.0600 
1662 H        7.8111     9.0185   -12.6659 H     277 MOH   0.4180 
1663 O      -10.5241    10.6985   -12.1699 O.3   278 MOH  -0.6830 
1664 C      -11.3585    11.3481   -11.2270 C.3   278 MOH   0.0850 
1665 H      -11.1678    12.4217   -11.2209 H     278 MOH   0.0600 
1666 H      -11.1738    10.9639   -10.2229 H     278 MOH   0.0600 
1667 H      -12.4112    11.1925   -11.4640 H     278 MOH   0.0600 
1668 H       -9.6142    10.9049   -11.9354 H     278 MOH   0.4180 
1669 O       -8.8764    14.6136    21.7927 O.3   279 MOH  -0.6830 
1670 C       -7.7710    15.3834    21.3466 C.3   279 MOH   0.0850 
1671 H       -8.0608    16.4238    21.1916 H     279 MOH   0.0600 
1672 H       -7.3805    14.9935    20.4049 H     279 MOH   0.0600 
1673 H       -6.9660    15.3601    22.0820 H     279 MOH   0.0600 
1674 H       -9.5554    14.6652    21.1268 H     279 MOH   0.4180 
1675 O       28.0030     9.3758    -8.1181 O.3   280 MOH  -0.6830 
1676 C       28.2396     9.5503    -6.7352 C.3   280 MOH   0.0850 
1677 H       29.0684     8.9224    -6.4124 H     280 MOH   0.0600 
1678 H       27.3580     9.2745    -6.1553 H     280 MOH   0.0600 
1679 H       28.4884    10.5882    -6.5135 H     280 MOH   0.0600 
1680 H       27.7633     8.4525    -8.2604 H     280 MOH   0.4180 
1681 O       13.9525    -0.0512    -0.8108 O.3   281 MOH  -0.6830 
1682 C       13.2088     0.8119     0.0258 C.3   281 MOH   0.0850 
1683 H       12.6673     0.2409     0.7800 H     281 MOH   0.0600 
1684 H       12.4834     1.3782    -0.5596 H     281 MOH   0.0600 
1685 H       13.8694     1.5181     0.5304 H     281 MOH   0.0600 
1686 H       14.3660     0.4929    -1.4968 H     281 MOH   0.4180 
1687 O        1.2446    -2.6335   -10.7325 O.3   282 MOH  -0.6830 
1688 C        0.7739    -3.7185   -11.5088 C.3   282 MOH   0.0850 
1689 H        0.8667    -4.6546   -10.9583 H     282 MOH   0.0600 
1690 H        1.3468    -3.8069   -12.4319 H     282 MOH   0.0600 
1691 H       -0.2775    -3.5805   -11.7658 H     282 MOH   0.0600 
1692 H        0.6679    -2.5589    -9.9571 H     282 MOH   0.4180 
1693 O       -0.8208     6.1883    -9.4162 O.3   283 MOH  -0.6830 
1694 C       -1.3924     7.0291   -10.4006 C.3   283 MOH   0.0850 
1695 H       -2.4188     6.7291   -10.6130 H     283 MOH   0.0600 
1696 H       -0.8247     6.9824   -11.3308 H     283 MOH   0.0600 
1697 H       -1.4007     8.0642   -10.0578 H     283 MOH   0.0600 
1698 H       -1.3696     6.2413    -8.6229 H     283 MOH   0.4180 
1699 O        7.8514     6.0488    -6.6128 O.3   284 MOH  -0.6830 
1700 C        6.7771     6.8462    -7.0733 C.3   284 MOH   0.0850 
1701 H        6.6169     7.6949    -6.4082 H     284 MOH   0.0600 
1702 H        5.8551     6.2659    -7.1111 H     284 MOH   0.0600 
1703 H        6.9857     7.2333    -8.0711 H     284 MOH   0.0600 
1704 H        8.5734     6.6450    -6.3716 H     284 MOH   0.4180 
1705 O        0.9059    12.2461    -8.3717 O.3   285 MOH  -0.6830 
1706 C        1.2941    12.9972    -7.2382 C.3   285 MOH   0.0850 
1707 H        0.6308    13.8518    -7.1026 H     285 MOH   0.0600 
1708 H        2.3125    13.3696    -7.3556 H     285 MOH   0.0600 
1709 H        1.2554    12.3921    -6.3336 H     285 MOH   0.0600 
1710 H        1.0557    12.7918    -9.1510 H     285 MOH   0.4180 
1711 O       -7.5688     1.4605    -2.5202 O.3   286 MOH  -0.6830 
1712 C       -6.2722     1.1169    -2.0804 C.3   286 MOH   0.0850 
1713 H       -6.2631     0.1119    -1.6580 H     286 MOH   0.0600 
1714 H       -5.9374     1.8205    -1.3184 H     286 MOH   0.0600 
1715 H       -5.5623     1.1597    -2.9062 H     286 MOH   0.0600 
1716 H       -7.5778     2.4227    -2.6259 H     286 MOH   0.4180 
1717 O       -8.4215    16.2751   -12.8462 O.3   287 MOH  -0.6830 
1718 C       -9.0682    15.3651   -11.9797 C.3   287 MOH   0.0850 
1719 H       -8.8093    14.3374   -12.2365 H     287 MOH   0.0600 
1720 H      -10.1508    15.4769   -12.0503 H     287 MOH   0.0600 
1721 H       -8.7679    15.5456   -10.9472 H     287 MOH   0.0600 
1722 H       -8.6995    16.0852   -13.7441 H     287 MOH   0.4180 
1723 O       -2.3609     6.3820    -7.1565 O.3   288 MOH  -0.6830 
1724 C       -2.4083     7.6640    -6.5602 C.3   288 MOH   0.0850 
1725 H       -1.4350     8.1527    -6.6136 H     288 MOH   0.0600 
1726 H       -2.6988     7.5933    -5.5115 H     288 MOH   0.0600 
1727 H       -3.1342     8.2925    -7.0741 H     288 MOH   0.0600 
1728 H       -3.2525     6.0070    -7.1386 H     288 MOH   0.4180 
1729 O        3.5274     8.9052    -6.2428 O.3   289 MOH  -0.6830 
1730 C        3.3224     9.6538    -7.4250 C.3   289 MOH   0.0850 
1731 H        2.2803     9.5979    -7.7426 H     289 MOH   0.0600 
1732 H        3.9483     9.2707    -8.2310 H     289 MOH   0.0600 
1733 H        3.5728    10.7025    -7.2668 H     289 MOH   0.0600 
1734 H        3.2211     8.0105    -6.4051 H     289 MOH   0.4180 
1735 O        3.4020    -7.8852    -5.8319 O.3   290 MOH  -0.6830 
1736 C        3.3494    -6.8901    -4.8302 C.3   290 MOH   0.0850 
1737 H        2.7662    -6.0325    -5.1670 H     290 MOH   0.0600 
1738 H        4.3530    -6.5483    -4.5768 H     290 MOH   0.0600 
1739 H        2.8874    -7.2859    -3.9273 H     290 MOH   0.0600 
1740 H        3.8052    -7.4968    -6.6130 H     290 MOH   0.4180 
1741 O       14.8925   -19.5414    -4.0094 O.3   291 MOH  -0.6830 
1742 C       14.7443   -20.4569    -2.9390 C.3   291 MOH   0.0850 
1743 H       15.6417   -20.4691    -2.3200 H     291 MOH   0.0600 
1744 H       14.5750   -21.4662    -3.3146 H     291 MOH   0.0600 
1745 H       13.8990   -20.1839    -2.3065 H     291 MOH   0.0600 
1746 H       14.9061   -18.6519    -3.6332 H     291 MOH   0.4180 
1747 O       10.7658    13.1465   -13.1761 O.3   292 MOH  -0.6830 
1748 C       11.5255    13.1866   -14.3697 C.3   292 MOH   0.0850 
1749 H       10.9831    13.7095   -15.1580 H     292 MOH   0.0600 
1750 H       11.7488    12.1756   -14.7131 H     292 MOH   0.0600 
1751 H       12.4712    13.7049   -14.2080 H     292 MOH   0.0600 
1752 H       11.3350    12.7690   -12.4917 H     292 MOH   0.4180 
1753 O       23.4754    10.2304    -7.3605 O.3   293 MOH  -0.6830 
1754 C       24.7432    10.0851    -7.9679 C.3   293 MOH   0.0850 
1755 H       24.7256    10.4601    -8.9915 H     293 MOH   0.0600 
1756 H       25.0406     9.0359    -7.9908 H     293 MOH   0.0600 
1757 H       25.4985    10.6422    -7.4131 H     293 MOH   0.0600 
1758 H       23.5265     9.8548    -6.4742 H     293 MOH   0.4180 
1759 O      -11.9865     5.4607    -0.4694 O.3   294 MOH  -0.6830 
1760 C      -12.3357     5.6878     0.8825 C.3   294 MOH   0.0850 
1761 H      -13.2751     6.2379     0.9501 H     294 MOH   0.0600 
1762 H      -11.5622     6.2633     1.3915 H     294 MOH   0.0600 
1763 H      -12.4607     4.7383     1.4043 H     294 MOH   0.0600 
1764 H      -12.6914     4.9227    -0.8506 H     294 MOH   0.4180 
1765 O       26.5164     9.0332     8.9342 O.3   295 MOH  -0.6830 
1766 C       26.2459    10.4161     8.8121 C.3   295 MOH   0.0850 
1767 H       26.0384    10.6711     7.7728 H     295 MOH   0.0600 
1768 H       27.0973    11.0096     9.1459 H     295 MOH   0.0600 
1769 H       25.3785    10.6941     9.4121 H     295 MOH   0.0600 
1770 H       25.7344     8.5569     8.6276 H     295 MOH   0.4180 
1771 O       -0.1538     1.2610    -5.9441 O.3   296 MOH  -0.6830 
1772 C       -0.6800     1.3429    -7.2563 C.3   296 MOH   0.0850 
1773 H       -1.7321     1.0535    -7.2660 H     296 MOH   0.0600 
1774 H       -0.1376     0.6800    -7.9312 H     296 MOH   0.0600 
1775 H       -0.6021     2.3619    -7.6374 H     296 MOH   0.0600 
1776 H       -0.6555     1.8775    -5.3953 H     296 MOH   0.4180 
1777 O       -5.3431     7.6523    -0.9113 O.3   297 MOH  -0.6830 
1778 C       -6.4894     7.4108    -0.1165 C.3   297 MOH   0.0850 
1779 H       -6.3316     6.5550     0.5406 H     297 MOH   0.0600 
1780 H       -7.3539     7.2031    -0.7474 H     297 MOH   0.0600 
1781 H       -6.7210     8.2802     0.4997 H     297 MOH   0.0600 
1782 H       -5.5545     8.3672    -1.5221 H     297 MOH   0.4180 
1783 O       27.0031     2.4834     3.1371 O.3   298 MOH  -0.6830 
1784 C       27.8830     3.1163     4.0447 C.3   298 MOH   0.0850 
1785 H       27.3195     3.6732     4.7928 H     298 MOH   0.0600 
1786 H       28.5457     3.8073     3.5230 H     298 MOH   0.0600 
1787 H       28.5006     2.3849     4.5629 H     298 MOH   0.0600 
1788 H       27.5292     2.0672     2.4463 H     298 MOH   0.4180 
1789 O        5.4549     1.2528    12.0168 O.3   299 MOH  -0.6830 
1790 C        4.2352     1.2220    11.2961 C.3   299 MOH   0.0850 
1791 H        4.3554     0.7280    10.3308 H     299 MOH   0.0600 
1792 H        3.4727     0.6874    11.8626 H     299 MOH   0.0600 
1793 H        3.8705     2.2351    11.1196 H     299 MOH   0.0600 
1794 H        5.2395     1.6121    12.8846 H     299 MOH   0.4180 
1795 O       12.1778     1.6111    10.0200 O.3   300 MOH  -0.6830 
1796 C       12.9192     0.4373     9.7411 C.3   300 MOH   0.0850 
1797 H       12.3349    -0.4503     9.9857 H     300 MOH   0.0600 
1798 H       13.8381     0.4185    10.3281 H     300 MOH   0.0600 
1799 H       13.1965     0.3783     8.6899 H     300 MOH   0.0600 
1800 H       12.0692     1.6542    10.9794 H     300 MOH   0.4180 
1801 O       23.4139   -13.4230    -2.9449 O.3   301 MOH  -0.6830 
1802 C       23.6071   -14.7115    -3.4923 C.3   301 MOH   0.0850 
1803 H       24.2234   -14.6641    -4.3904 H     301 MOH   0.0600 
1804 H       22.6474   -15.1586    -3.7542 H     301 MOH   0.0600 
1805 H       24.1003   -15.3610    -2.7678 H     301 MOH   0.0600 
1806 H       22.8433   -13.5303    -2.1699 H     301 MOH   0.4180 
1807 O       11.5832     5.4056    -2.2152 O.3   302 MOH  -0.6830 
1808 C       11.7680     6.5789    -2.9934 C.3   302 MOH   0.0850 
1809 H       10.8178     6.9353    -3.3871 H     302 MOH   0.0600 
1810 H       12.4212     6.3776    -3.8421 H     302 MOH   0.0600 
1811 H       12.2108     7.3815    -2.4027 H     302 MOH   0.0600 
1812 H       11.3454     4.6990    -2.8374 H     302 MOH   0.4180 
1813 O        0.8736    12.9818   -15.6894 O.3   303 MOH  -0.6830 
1814 C        0.7398    12.6324   -17.0576 C.3   303 MOH   0.0850 
1815 H       -0.2485    12.2154   -17.2526 H     303 MOH   0.0600 
1816 H        1.4845    11.8852   -17.3351 H     303 MOH   0.0600 
1817 H        0.8748    13.5013   -17.7026 H     303 MOH   0.0600 
1818 H        0.9911    12.1479   -15.2078 H     303 MOH   0.4180 
1819 O       -6.5463    14.2336   -15.0064 O.3   304 MOH  -0.6830 
1820 C       -5.8712    14.5683   -13.8085 C.3   304 MOH   0.0850 
1821 H       -5.7043    15.6446   -13.7523 H     304 MOH   0.0600 
1822 H       -4.9047    14.0676   -13.7539 H     304 MOH   0.0600 
1823 H       -6.4545    14.2698   -12.9375 H     304 MOH   0.0600 
1824 H       -7.3708    14.7194   -15.0273 H     304 MOH   0.4180 
1825 O       -7.4277     9.3356    -9.4786 O.3   305 MOH  -0.6830 
1826 C       -8.5980     9.4340    -8.6879 C.3   305 MOH   0.0850 
1827 H       -8.8788    10.4783    -8.5455 H     305 MOH   0.0600 
1828 H       -8.4456     8.9867    -7.7053 H     305 MOH   0.0600 
1829 H       -9.4320     8.9264    -9.1753 H     305 MOH   0.0600 
1830 H       -7.5898     9.8539   -10.2728 H     305 MOH   0.4180 
1831 O       -0.3945    15.4434   -16.3062 O.3   306 MOH  -0.6830 
1832 C        0.2606    16.5454   -15.7062 C.3   306 MOH   0.0850 
1833 H        1.3125    16.5663   -15.9933 H     306 MOH   0.0600 
1834 H        0.2061    16.4799   -14.6186 H     306 MOH   0.0600 
1835 H       -0.1971    17.4858   -16.0166 H     306 MOH   0.0600 
1836 H        0.0592    14.6430   -16.0237 H     306 MOH   0.4180 
1837 O       -7.8562    11.3191   -11.4380 O.3   307 MOH  -0.6830 
1838 C       -7.2635    11.1438   -12.7133 C.3   307 MOH   0.0850 
1839 H       -6.1797    11.0552   -12.6270 H     307 MOH   0.0600 
1840 H       -7.4859    11.9914   -13.3632 H     307 MOH   0.0600 
1841 H       -7.6427    10.2405   -13.1916 H     307 MOH   0.0600 
1842 H       -7.4335    12.0857   -11.0234 H     307 MOH   0.4180 
1843 O        1.8177    14.2866   -13.3397 O.3   308 MOH  -0.6830 
1844 C        3.2122    14.4737   -13.4911 C.3   308 MOH   0.0850 
1845 H        3.4266    15.0613   -14.3849 H     308 MOH   0.0600 
1846 H        3.7183    13.5118   -13.5816 H     308 MOH   0.0600 
1847 H        3.6288    14.9972   -12.6302 H     308 MOH   0.0600 
1848 H        1.4876    13.8820   -14.1450 H     308 MOH   0.4180 
1849 O       -6.5466    13.4015   -10.1402 O.3   309 MOH  -0.6830 
1850 C       -6.0757    12.7657    -8.9667 C.3   309 MOH   0.0850 
1851 H       -4.9854    12.7335    -8.9587 H     309 MOH   0.0600 
1852 H       -6.4524    11.7475    -8.8955 H     309 MOH   0.0600 
1853 H       -6.4040    13.3120    -8.0817 H     309 MOH   0.0600 
1854 H       -6.2839    14.3283   -10.0603 H     309 MOH   0.4180 
1855 O       -6.9890     8.2779    -4.6858 O.3   310 MOH  -0.6830 
1856 C       -5.9889     8.1698    -5.6797 C.3   310 MOH   0.0850 
1857 H       -5.5449     9.1445    -5.8856 H     310 MOH   0.0600 
1858 H       -6.4058     7.7829    -6.6090 H     310 MOH   0.0600 
1859 H       -5.1992     7.4938    -5.3514 H     310 MOH   0.0600 
1860 H       -6.6040     8.7349    -3.9300 H     310 MOH   0.4180 
1861 O        1.0033    20.3278   -15.4277 O.3   311 MOH  -0.6830 
1862 C        2.3050    19.9129   -15.0658 C.3   311 MOH   0.0850 
1863 H        2.3131    18.8513   -14.8176 H     311 MOH   0.0600 
1864 H        2.6578    20.4660   -14.1954 H     311 MOH   0.0600 
1865 H        3.0043    20.0782   -15.8860 H     311 MOH   0.0600 
1866 H        1.0352    21.2429   -15.7011 H     311 MOH   0.4180 
1867 O       -8.4561     8.6984    10.3791 O.3   312 MOH  -0.6830 
1868 C       -8.0565     7.8608    11.4478 C.3   312 MOH   0.0850 
1869 H       -8.6378     8.0766    12.3447 H     312 MOH   0.0600 
1870 H       -7.0018     8.0070    11.6821 H     312 MOH   0.0600 
1871 H       -8.2063     6.8138    11.1862 H     312 MOH   0.0600 
1872 H       -9.4192     8.6922    10.3393 H     312 MOH   0.4180 
1873 O        5.9820     7.4393    -0.3622 O.3   313 MOH  -0.6830 
1874 C        5.8857     8.8421    -0.5155 C.3   313 MOH   0.0850 
1875 H        6.8774     9.2964    -0.5317 H     313 MOH   0.0600 
1876 H        5.3175     9.2826     0.3032 H     313 MOH   0.0600 
1877 H        5.3847     9.0876    -1.4510 H     313 MOH   0.0600 
1878 H        6.5623     7.1232    -1.0658 H     313 MOH   0.4180 
1879 O       -3.1816    10.0296    21.0551 O.3   314 MOH  -0.6830 
1880 C       -2.0573    10.1017    20.2014 C.3   314 MOH   0.0850 
1881 H       -2.0590    11.0336    19.6343 H     314 MOH   0.0600 
1882 H       -2.0588     9.2732    19.4934 H     314 MOH   0.0600 
1883 H       -1.1351    10.0563    20.7810 H     314 MOH   0.0600 
1884 H       -3.1540    10.7840    21.6522 H     314 MOH   0.4180 
1885 O        3.4185   -14.9167    -1.5639 O.3   315 MOH  -0.6830 
1886 C        4.0128   -14.7971    -2.8417 C.3   315 MOH   0.0850 
1887 H        3.3923   -15.2809    -3.5966 H     315 MOH   0.0600 
1888 H        4.9975   -15.2646    -2.8549 H     315 MOH   0.0600 
1889 H        4.1284   -13.7483    -3.1167 H     315 MOH   0.0600 
1890 H        2.5836   -14.4444    -1.5898 H     315 MOH   0.4180 
1891 O      -10.4113    -8.5626    -6.5279 O.3   316 MOH  -0.6830 
1892 C       -9.6325    -7.4366    -6.1723 C.3   316 MOH   0.0850 
1893 H       -8.5668    -7.6570    -6.2510 H     316 MOH   0.0600 
1894 H       -9.8485    -7.1408    -5.1454 H     316 MOH   0.0600 
1895 H       -9.8602    -6.5930    -6.8237 H     316 MOH   0.0600 
1896 H      -11.3402    -8.3108    -6.4261 H     316 MOH   0.4180 
1897 O       11.0096    -4.8361   -11.0872 O.3   317 MOH  -0.6830 
1898 C       11.3268    -5.9300   -11.9275 C.3   317 MOH   0.0850 
1899 H       10.5409    -6.0855   -12.6677 H     317 MOH   0.0600 
1900 H       11.4291    -6.8452   -11.3429 H     317 MOH   0.0600 
1901 H       12.2636    -5.7513   -12.4552 H     317 MOH   0.0600 
1902 H       10.1375    -5.0069   -10.7133 H     317 MOH   0.4180 
1903 O       -7.1538     8.7011   -15.3983 O.3   318 MOH  -0.6830 
1904 C       -7.1109     8.5965   -16.8094 C.3   318 MOH   0.0850 
1905 H       -7.8230     9.2829   -17.2694 H     318 MOH   0.0600 
1906 H       -7.3570     7.5863   -17.1346 H     318 MOH   0.0600 
1907 H       -6.1135     8.8364   -17.1795 H     318 MOH   0.0600 
1908 H       -8.0127     8.4308   -15.1036 H     318 MOH   0.4180 
1909 O       -1.9227    -2.9490    -4.9240 O.3   319 MOH  -0.6830 
1910 C       -1.2636    -4.1604    -4.6088 C.3   319 MOH   0.0850 
1911 H       -0.3496    -3.9585    -4.0495 H     319 MOH   0.0600 
1912 H       -0.9930    -4.6954    -5.5186 H     319 MOH   0.0600 
1913 H       -1.8982    -4.8091    -4.0051 H     319 MOH   0.0600 
1914 H       -1.2588    -2.3711    -5.3136 H     319 MOH   0.4180 
1915 O       -7.0694     3.7558    -6.5456 O.3   320 MOH  -0.6830 
1916 C       -7.4970     2.8061    -5.5903 C.3   320 MOH   0.0850 
1917 H       -8.2296     3.2496    -4.9154 H     320 MOH   0.0600 
1918 H       -6.6541     2.4472    -5.0003 H     320 MOH   0.0600 
1919 H       -7.9670     1.9528    -6.0802 H     320 MOH   0.0600 
1920 H       -7.8697     4.0915    -6.9663 H     320 MOH   0.4180 
1921 O        8.1429    -7.6086   -11.7435 O.3   321 MOH  -0.6830 
1922 C        6.9394    -8.3088   -11.9835 C.3   321 MOH   0.0850 
1923 H        6.1242    -7.6194   -12.2032 H     321 MOH   0.0600 
1924 H        6.6707    -8.8964   -11.1060 H     321 MOH   0.0600 
1925 H        7.0527    -8.9907   -12.8275 H     321 MOH   0.0600 
1926 H        8.8493    -8.2702   -11.7093 H     321 MOH   0.4180 
1927 O        7.3026    -1.4931   -11.3159 O.3   322 MOH  -0.6830 
1928 C        8.5982    -1.5894   -11.8706 C.3   322 MOH   0.0850 
1929 H        9.1798    -0.6962   -11.6370 H     322 MOH   0.0600 
1930 H        8.5401    -1.6892   -12.9545 H     322 MOH   0.0600 
1931 H        9.1228    -2.4604   -11.4784 H     322 MOH   0.0600 
1932 H        6.8697    -0.7426   -11.7276 H     322 MOH   0.4180 
1933 O        1.8548     4.5811     9.0701 O.3   323 MOH  -0.6830 
1934 C        2.6009     5.7830     9.1055 C.3   323 MOH   0.0850 
1935 H        2.4614     6.3468     8.1831 H     323 MOH   0.0600 
1936 H        3.6653     5.5829     9.2261 H     323 MOH   0.0600 
1937 H        2.2744     6.4101     9.9359 H     323 MOH   0.0600 
1938 H        0.9248     4.8303     9.0388 H     323 MOH   0.4180 
1939 O        7.3253     1.5700   -14.7936 O.3   324 MOH  -0.6830 
1940 C        8.1220     0.5024   -15.2630 C.3   324 MOH   0.0850 
1941 H        8.9180     0.2765   -14.5532 H     324 MOH   0.0600 
1942 H        8.5744     0.7635   -16.2185 H     324 MOH   0.0600 
1943 H        7.5234    -0.3977   -15.4033 H     324 MOH   0.0600 
1944 H        6.8793     1.2834   -13.9896 H     324 MOH   0.4180 
1945 O        6.1266    15.2396   -15.2121 O.3   325 MOH  -0.6830 
1946 C        7.0900    15.3166   -14.1777 C.3   325 MOH   0.0850 
1947 H        7.6425    16.2548   -14.2364 H     325 MOH   0.0600 
1948 H        7.8058    14.4970   -14.2585 H     325 MOH   0.0600 
1949 H        6.6139    15.2600   -13.1982 H     325 MOH   0.0600 
1950 H        6.5976    15.2850   -16.0548 H     325 MOH   0.4180 
1951 O        6.0043    -2.6129    -0.3548 O.3   326 MOH  -0.6830 
1952 C        4.9641    -3.0613     0.4850 C.3   326 MOH   0.0850 
1953 H        5.3776    -3.5700     1.3517 H     326 MOH   0.0600 
1954 H        4.3060    -3.7494    -0.0467 H     326 MOH   0.0600 
1955 H        4.3693    -2.2232     0.8429 H     326 MOH   0.0600 
1956 H        5.5988    -2.1546    -1.0994 H     326 MOH   0.4180 
1957 O       10.7714     8.4465   -12.7495 O.3   327 MOH  -0.6830 
1958 C       10.3744     7.1371   -12.3816 C.3   327 MOH   0.0850 
1959 H        9.8061     7.1532   -11.4512 H     327 MOH   0.0600 
1960 H       11.2408     6.4913   -12.2370 H     327 MOH   0.0600 
1961 H        9.7441     6.6962   -13.1544 H     327 MOH   0.0600 
1962 H        9.9825     8.9984   -12.7656 H     327 MOH   0.4180 
1963 O       -4.4092     2.5642   -10.4251 O.3   328 MOH  -0.6830 
1964 C       -3.1304     3.1643   -10.3316 C.3   328 MOH   0.0850 
1965 H       -3.0540     4.0243   -10.9982 H     328 MOH   0.0600 
1966 H       -2.3542     2.4484   -10.6044 H     328 MOH   0.0600 
1967 H       -2.9399     3.5031    -9.3120 H     328 MOH   0.0600 
1968 H       -4.4176     1.8118    -9.8204 H     328 MOH   0.4180 
1969 O       -0.4864    -6.3674    20.6143 O.3   329 MOH  -0.6830 
1970 C       -0.5098    -7.6167    21.2732 C.3   329 MOH   0.0850 
1971 H        0.2901    -7.6719    22.0123 H     329 MOH   0.0600 
1972 H       -0.3785    -8.4281    20.5572 H     329 MOH   0.0600 
1973 H       -1.4606    -7.7615    21.7867 H     329 MOH   0.0600 
1974 H       -0.6536    -5.6830    21.2736 H     329 MOH   0.4180 
1975 O        3.2559     3.6224     4.9128 O.3   330 MOH  -0.6830 
1976 C        2.2028     3.1235     4.1144 C.3   330 MOH   0.0850 
1977 H        2.4832     3.1324     3.0606 H     330 MOH   0.0600 
1978 H        1.3043     3.7288     4.2347 H     330 MOH   0.0600 
1979 H        1.9646     2.0995     4.3995 H     330 MOH   0.0600 
1980 H        3.4199     4.5359     4.6495 H     330 MOH   0.4180 
1981 O       -5.7047     3.9773   -12.4092 O.3   331 MOH  -0.6830 
1982 C       -7.0138     4.3233   -11.9978 C.3   331 MOH   0.0850 
1983 H       -7.6127     3.4277   -11.8271 H     331 MOH   0.0600 
1984 H       -7.5088     4.9287   -12.7573 H     331 MOH   0.0600 
1985 H       -6.9892     4.8970   -11.0711 H     331 MOH   0.0600 
1986 H       -5.2950     3.4671   -11.6968 H     331 MOH   0.4180 
1987 O        7.7712    18.6693    -6.3713 O.3   332 MOH  -0.6830 
1988 C        8.1209    20.0159    -6.6362 C.3   332 MOH   0.0850 
1989 H        9.0154    20.3005    -6.0809 H     332 MOH   0.0600 
1990 H        7.3120    20.6872    -6.3459 H     332 MOH   0.0600 
1991 H        8.3198    20.1613    -7.6983 H     332 MOH   0.0600 
1992 H        8.5129    18.1093    -6.6397 H     332 MOH   0.4180 
1993 O       -0.3691     0.5839     4.4214 O.3   333 MOH  -0.6830 
1994 C        0.1896    -0.5607     5.0348 C.3   333 MOH   0.0850 
1995 H        0.0164    -1.4389     4.4122 H     333 MOH   0.0600 
1996 H       -0.2580    -0.7350     6.0137 H     333 MOH   0.0600 
1997 H        1.2669    -0.4410     5.1600 H     333 MOH   0.0600 
1998 H        0.0886     0.6954     3.5811 H     333 MOH   0.4180 
1999 O       -9.2458     5.1843    -0.5367 O.3   334 MOH  -0.6830 
2000 C       -8.9454     4.3779     0.5881 C.3   334 MOH   0.0850 
2001 H       -7.8857     4.1224     0.6111 H     334 MOH   0.0600 
2002 H       -9.5195     3.4509     0.5645 H     334 MOH   0.0600 
2003 H       -9.1906     4.9019     1.5125 H     334 MOH   0.0600 
2004 H      -10.1981     5.3507    -0.5247 H     334 MOH   0.4180 
2005 O       -5.8860     9.7655    -2.6413 O.3   335 MOH  -0.6830 
2006 C       -6.4537    10.6494    -1.6924 C.3   335 MOH   0.0850 
2007 H       -7.2711    10.1713    -1.1541 H     335 MOH   0.0600 
2008 H       -6.8406    11.5419    -2.1858 H     335 MOH   0.0600 
2009 H       -5.7011    10.9620    -0.9679 H     335 MOH   0.0600 
2010 H       -5.2639    10.2960    -3.1639 H     335 MOH   0.4180 
2011 O        5.5835    20.4731   -14.6551 O.3   336 MOH  -0.6830 
2012 C        5.6277    20.1390   -13.2778 C.3   336 MOH   0.0850 
2013 H        5.3513    19.0955   -13.1207 H     336 MOH   0.0600 
2014 H        4.9356    20.7597   -12.7076 H     336 MOH   0.0600 
2015 H        6.6285    20.2902   -12.8705 H     336 MOH   0.0600 
2016 H        6.1693    19.8853   -15.1200 H     336 MOH   0.4180 
2017 O       -0.2756    -2.2270    -8.5200 O.3   337 MOH  -0.6830 
2018 C       -1.5677    -2.7993    -8.5441 C.3   337 MOH   0.0850 
2019 H       -2.3014    -2.0913    -8.1561 H     337 MOH   0.0600 
2020 H       -1.5986    -3.6987    -7.9274 H     337 MOH   0.0600 
2021 H       -1.8538    -3.0709    -9.5608 H     337 MOH   0.0600 
2022 H       -0.0882    -1.9833    -7.6071 H     337 MOH   0.4180 
2023 O        5.6990    12.2730     1.9771 O.3   338 MOH  -0.6830 
2024 C        7.0124    11.8013     1.7603 C.3   338 MOH   0.0850 
2025 H        7.3699    12.1017     0.7753 H     338 MOH   0.0600 
2026 H        7.0522    10.7151     1.8192 H     338 MOH   0.0600 
2027 H        7.6881    12.2143     2.5097 H     338 MOH   0.0600 
2028 H        5.7265    13.2332     1.8566 H     338 MOH   0.4180 
2029 O       -1.5037    17.4955     1.4776 O.3   339 MOH  -0.6830 
2030 C       -1.2353    16.1379     1.7695 C.3   339 MOH   0.0850 
2031 H       -2.1575    15.5616     1.8562 H     339 MOH   0.0600 
2032 H       -0.6882    16.0474     2.7082 H     339 MOH   0.0600 
2033 H       -0.6299    15.6955     0.9785 H     339 MOH   0.0600 
2034 H       -0.6697    17.9393     1.3963 H     339 MOH   0.4180 
2035 O        9.3013    10.6286     5.6430 O.3   340 MOH  -0.6830 
2036 C        9.0613    12.0156     5.4781 C.3   340 MOH   0.0850 
2037 H        9.5793    12.3912     4.5957 H     340 MOH   0.0600 
2038 H        9.4109    12.5773     6.3451 H     340 MOH   0.0600 
2039 H        7.9974    12.2147     5.3480 H     340 MOH   0.0600 
2040 H       10.2450    10.5063     5.8169 H     340 MOH   0.4180 
2041 O       -0.1834     6.9153     6.9199 O.3   341 MOH  -0.6830 
2042 C        0.1553     6.1475     5.7826 C.3   341 MOH   0.0850 
2043 H        0.9461     5.4366     6.0262 H     341 MOH   0.0600 
2044 H        0.5074     6.7909     4.9762 H     341 MOH   0.0600 
2045 H       -0.7097     5.5883     5.4248 H     341 MOH   0.0600 
2046 H       -0.4891     6.3041     7.6015 H     341 MOH   0.4180 
2047 O        1.4114    13.8804   -10.6181 O.3   342 MOH  -0.6830 
2048 C        1.5199    15.1980   -10.1118 C.3   342 MOH   0.0850 
2049 H        1.3484    15.2246    -9.0363 H     342 MOH   0.0600 
2050 H        0.7868    15.8482   -10.5903 H     342 MOH   0.0600 
2051 H        2.5135    15.6025   -10.3079 H     342 MOH   0.0600 
2052 H        1.5235    13.9400   -11.5753 H     342 MOH   0.4180 
2053 O       27.4348     6.7013    -8.4593 O.3   343 MOH  -0.6830 
2054 C       27.0120     6.1480    -7.2270 C.3   343 MOH   0.0850 
2055 H       27.8610     5.9961    -6.5599 H     343 MOH   0.0600 
2056 H       26.5252     5.1849    -7.3847 H     343 MOH   0.0600 
2057 H       26.3052     6.8142    -6.7306 H     343 MOH   0.0600 
2058 H       27.9506     6.0346    -8.9245 H     343 MOH   0.4180 
2059 O       -2.7709    14.9450   -17.5940 O.3   344 MOH  -0.6830 
2060 C       -3.7518    15.4976   -16.7345 C.3   344 MOH   0.0850 
2061 H       -4.7482    15.1512   -17.0088 H     344 MOH   0.0600 
2062 H       -3.7374    16.5869   -16.7848 H     344 MOH   0.0600 
2063 H       -3.5615    15.2042   -15.7015 H     344 MOH   0.0600 
2064 H       -1.9104    15.2245   -17.2495 H     344 MOH   0.4180 
2065 O       -4.8644     5.2627    -7.2640 O.3   345 MOH  -0.6830 
2066 C       -5.2271     5.6824    -8.5678 C.3   345 MOH   0.0850 
2067 H       -6.1505     6.2608    -8.5444 H     345 MOH   0.0600 
2068 H       -5.3870     4.8177    -9.2115 H     345 MOH   0.0600 
2069 H       -4.4497     6.3034    -9.0136 H     345 MOH   0.0600 
2070 H       -5.5798     4.6993    -6.9419 H     345 MOH   0.4180 
2071 O        9.4187    16.9904   -10.1346 O.3   346 MOH  -0.6830 
2072 C        8.2666    17.7780   -10.3741 C.3   346 MOH   0.0850 
2073 H        7.3630    17.2225   -10.1196 H     346 MOH   0.0600 
2074 H        8.2050    18.0603   -11.4255 H     346 MOH   0.0600 
2075 H        8.2868    18.6891    -9.7751 H     346 MOH   0.0600 
2076 H        9.3450    16.1975   -10.6815 H     346 MOH   0.4180 
2077 O        5.8206    14.9346     1.4536 O.3   347 MOH  -0.6830 
2078 C        5.9797    15.0454     0.0504 C.3   347 MOH   0.0850 
2079 H        6.4944    15.9735    -0.2001 H     347 MOH   0.0600 
2080 H        5.0122    15.0419    -0.4525 H     347 MOH   0.0600 
2081 H        6.5645    14.2124    -0.3410 H     347 MOH   0.0600 
2082 H        5.4064    15.7434     1.7716 H     347 MOH   0.4180 
2083 O        5.6670    17.9808    -7.9962 O.3   348 MOH  -0.6830 
2084 C        5.1520    16.7164    -7.6313 C.3   348 MOH   0.0850 
2085 H        4.3219    16.4350    -8.2801 H     348 MOH   0.0600 
2086 H        4.7915    16.7349    -6.6022 H     348 MOH   0.0600 
2087 H        5.9272    15.9534    -7.7095 H     348 MOH   0.0600 
2088 H        6.3606    18.2067    -7.3641 H     348 MOH   0.4180 
2089 O       14.0895    13.4421    19.9560 O.3   349 MOH  -0.6830 
2090 C       13.6670    12.2260    19.3717 C.3   349 MOH   0.0850 
2091 H       12.6099    12.0466    19.5698 H     349 MOH   0.0600 
2092 H       14.2389    11.3908    19.7766 H     349 MOH   0.0600 
2093 H       13.8166    12.2478    18.2917 H     349 MOH   0.0600 
2094 H       15.0217    13.5584    19.7379 H     349 MOH   0.4180 
2095 O        2.0565    16.1514    -6.5207 O.3   350 MOH  -0.6830 
2096 C        1.6550    17.4970    -6.3706 C.3   350 MOH   0.0850 
2097 H        2.1116    17.9359    -5.4831 H     350 MOH   0.0600 
2098 H        0.5713    17.5639    -6.2684 H     350 MOH   0.0600 
2099 H        1.9590    18.0830    -7.2387 H     350 MOH   0.0600 
2100 H        1.7950    15.6669    -5.7288 H     350 MOH   0.4180 
2101 O       -3.0806    12.2152   -17.2673 O.3   351 MOH  -0.6830 
2102 C       -3.3223    11.9938   -15.8906 C.3   351 MOH   0.0850 
2103 H       -3.5449    10.9438   -15.6997 H     351 MOH   0.0600 
2104 H       -4.1744    12.5848   -15.5546 H     351 MOH   0.0600 
2105 H       -2.4514    12.2772   -15.2977 H     351 MOH   0.0600 
2106 H       -2.9586    13.1631   -17.3959 H     351 MOH   0.4180 
2107 O       -4.1246    15.1707    19.9669 O.3   352 MOH  -0.6830 
2108 C       -4.4576    13.8320    19.6477 C.3   352 MOH   0.0850 
2109 H       -5.0510    13.3838    20.4438 H     352 MOH   0.0600 
2110 H       -3.5553    13.2324    19.5214 H     352 MOH   0.0600 
2111 H       -5.0348    13.7838    18.7235 H     352 MOH   0.0600 
2112 H       -3.6296    15.1526    20.7941 H     352 MOH   0.4180 
2113 O        9.7321    17.0596    -7.4071 O.3   353 MOH  -0.6830 
2114 C       10.0546    15.7383    -7.0199 C.3   353 MOH   0.0850 
2115 H       10.9907    15.4221    -7.4810 H     353 MOH   0.0600 
2116 H        9.2703    15.0463    -7.3289 H     353 MOH   0.0600 
2117 H       10.1665    15.6688    -5.9377 H     353 MOH   0.0600 
2118 H        9.6884    17.0766    -8.3721 H     353 MOH   0.4180 
2119 O        5.5410    19.7331   -10.0900 O.3   354 MOH  -0.6830 
2120 C        5.1675    20.9723    -9.5216 C.3   354 MOH   0.0850 
2121 H        5.8587    21.2516    -8.7254 H     354 MOH   0.0600 
2122 H        4.1653    20.9091    -9.0967 H     354 MOH   0.0600 
2123 H        5.1731    21.7602   -10.2755 H     354 MOH   0.0600 
2124 H        5.5294    19.0727    -9.3863 H     354 MOH   0.4180 
2125 O       -5.6902    15.9266    -9.4355 O.3   355 MOH  -0.6830 
2126 C       -5.9215    16.9929   -10.3359 C.3   355 MOH   0.0850 
2127 H       -6.1977    16.6135   -11.3198 H     355 MOH   0.0600 
2128 H       -5.0247    17.6043   -10.4435 H     355 MOH   0.0600 
2129 H       -6.7298    17.6307    -9.9771 H     355 MOH   0.0600 
2130 H       -5.3466    16.3006    -8.6178 H     355 MOH   0.4180 
2131 O       19.1400    12.9201    -6.6817 O.3   356 MOH  -0.6830 
2132 C       17.9615    13.6836    -6.8364 C.3   356 MOH   0.0850 
2133 H       17.3121    13.2174    -7.5761 H     356 MOH   0.0600 
2134 H       18.1955    14.6923    -7.1789 H     356 MOH   0.0600 
2135 H       17.4146    13.7540    -5.8956 H     356 MOH   0.0600 
2136 H       19.5411    12.8282    -7.5564 H     356 MOH   0.4180 
2137 O       25.5640    12.7512   -13.0852 O.3   357 MOH  -0.6830 
2138 C       25.3407    11.4874   -13.6736 C.3   357 MOH   0.0850 
2139 H       26.2374    10.8722   -13.6032 H     357 MOH   0.0600 
2140 H       25.0872    11.6017   -14.7279 H     357 MOH   0.0600 
2141 H       24.5242    10.9668   -13.1730 H     357 MOH   0.0600 
2142 H       26.2828    13.1716   -13.5659 H     357 MOH   0.4180 
2143 O        1.8736     6.6806    -9.2941 O.3   358 MOH  -0.6830 
2144 C        2.2297     7.6156   -10.2942 C.3   358 MOH   0.0850 
2145 H        1.6459     8.5309   -10.1888 H     358 MOH   0.0600 
2146 H        2.0454     7.2032   -11.2868 H     358 MOH   0.0600 
2147 H        3.2861     7.8734   -10.2209 H     358 MOH   0.0600 
2148 H        0.9389     6.4618    -9.4135 H     358 MOH   0.4180 
2149 O       -7.3859     7.3253     5.7913 O.3   359 MOH  -0.6830 
2150 C       -8.5338     6.9755     6.5381 C.3   359 MOH   0.0850 
2151 H       -9.3359     6.6565     5.8718 H     359 MOH   0.0600 
2152 H       -8.8857     7.8280     7.1208 H     359 MOH   0.0600 
2153 H       -8.3111     6.1584     7.2247 H     359 MOH   0.0600 
2154 H       -7.6237     8.0558     5.2024 H     359 MOH   0.4180 
2155 O       19.1453   -17.6700    16.4064 O.3   360 MOH  -0.6830 
2156 C       17.9816   -17.8878    17.1782 C.3   360 MOH   0.0850 
2157 H       18.0355   -17.3393    18.1192 H     360 MOH   0.0600 
2158 H       17.8653   -18.9475    17.4026 H     360 MOH   0.0600 
2159 H       17.0960   -17.5535    16.6373 H     360 MOH   0.0600 
2160 H       19.2122   -16.7225    16.2449 H     360 MOH   0.4180 
2161 O       26.7347     4.9148     7.3011 O.3   361 MOH  -0.6830 
2162 C       27.2521     6.0964     6.7194 C.3   361 MOH   0.0850 
2163 H       26.9085     6.2013     5.6895 H     361 MOH   0.0600 
2164 H       28.3418     6.0795     6.7199 H     361 MOH   0.0600 
2165 H       26.9247     6.9727     7.2772 H     361 MOH   0.0600 
2166 H       25.7755     4.9634     7.2530 H     361 MOH   0.4180 
2167 O       -8.0782     9.4634     4.2145 O.3   362 MOH  -0.6830 
2168 C       -8.6413     9.3174     2.9233 C.3   362 MOH   0.0850 
2169 H       -8.5581     8.2874     2.5746 H     362 MOH   0.0600 
2170 H       -8.1317     9.9629     2.2070 H     362 MOH   0.0600 
2171 H       -9.6968     9.5925     2.9290 H     362 MOH   0.0600 
2172 H       -8.1651    10.3943     4.4615 H     362 MOH   0.4180 
2173 O      -11.8239     3.7158    17.6151 O.3   363 MOH  -0.6830 
2174 C      -11.6381     4.0044    18.9875 C.3   363 MOH   0.0850 
2175 H      -11.5706     5.0813    19.1459 H     363 MOH   0.0600 
2176 H      -10.7153     3.5511    19.3512 H     363 MOH   0.0600 
2177 H      -12.4677     3.6208    19.5818 H     363 MOH   0.0600 
2178 H      -11.0550     4.0657    17.1444 H     363 MOH   0.4180 
2179 O       -8.2695    12.1335     4.8399 O.3   364 MOH  -0.6830 
2180 C       -8.9672    12.3297     6.0543 C.3   364 MOH   0.0850 
2181 H       -8.2849    12.6643     6.8346 H     364 MOH   0.0600 
2182 H       -9.7466    13.0831     5.9324 H     364 MOH   0.0600 
2183 H       -9.4316    11.4013     6.3879 H     364 MOH   0.0600 
2184 H       -8.0127    12.9996     4.5013 H     364 MOH   0.4180 
2185 O       -3.0063     8.0202     0.5225 O.3   365 MOH  -0.6830 
2186 C       -3.0709     9.4270     0.6443 C.3   365 MOH   0.0850 
2187 H       -2.3750     9.7892     1.4007 H     365 MOH   0.0600 
2188 H       -4.0775     9.7313     0.9290 H     365 MOH   0.0600 
2189 H       -2.8319     9.9041    -0.3062 H     365 MOH   0.0600 
2190 H       -3.7714     7.7527    -0.0024 H     365 MOH   0.4180 
2191 O        7.7353    12.0904    22.8811 O.3   366 MOH  -0.6830 
2192 C        8.8299    11.7231    23.6966 C.3   366 MOH   0.0850 
2193 H        8.6957    10.7184    24.0981 H     366 MOH   0.0600 
2194 H        8.9227    12.4121    24.5364 H     366 MOH   0.0600 
2195 H        9.7586    11.7443    23.1256 H     366 MOH   0.0600 
2196 H        6.9500    12.1233    23.4418 H     366 MOH   0.4180 
2197 O       25.1437     5.4914    21.1636 O.3   367 MOH  -0.6830 
2198 C       24.8092     5.0591    19.8591 C.3   367 MOH   0.0850 
2199 H       25.6080     5.2968    19.1557 H     367 MOH   0.0600 
2200 H       23.8949     5.5465    19.5181 H     367 MOH   0.0600 
2201 H       24.6470     3.9805    19.8448 H     367 MOH   0.0600 
2202 H       24.3948     5.2885    21.7357 H     367 MOH   0.4180 
2203 O        9.4593    11.8046    14.3452 O.3   368 MOH  -0.6830 
2204 C       10.4926    11.2637    15.1459 C.3   368 MOH   0.0850 
2205 H       10.1161    10.4384    15.7497 H     368 MOH   0.0600 
2206 H       10.8928    12.0204    15.8213 H     368 MOH   0.0600 
2207 H       11.3073    10.8898    14.5243 H     368 MOH   0.0600 
2208 H        9.2046    11.1398    13.6947 H     368 MOH   0.4180 
2209 O       -7.1352    -4.2991    19.5566 O.3   369 MOH  -0.6830 
2210 C       -5.8766    -4.7118    19.0657 C.3   369 MOH   0.0850 
2211 H       -5.6908    -4.2842    18.0804 H     369 MOH   0.0600 
2212 H       -5.8355    -5.7988    18.9862 H     369 MOH   0.0600 
2213 H       -5.0815    -4.3889    19.7382 H     369 MOH   0.0600 
2214 H       -7.2834    -4.7523    20.3933 H     369 MOH   0.4180 
2215 O        7.8109     6.6606    -2.2659 O.3   370 MOH  -0.6830 
2216 C        8.0273     5.6605    -3.2469 C.3   370 MOH   0.0850 
2217 H        8.8123     5.9534    -3.9429 H     370 MOH   0.0600 
2218 H        7.1200     5.4829    -3.8243 H     370 MOH   0.0600 
2219 H        8.3224     4.7194    -2.7839 H     370 MOH   0.0600 
2220 H        8.6171     6.7677    -1.7522 H     370 MOH   0.4180 
2221 O       -3.2759    10.4484    16.2993 O.3   371 MOH  -0.6830 
2222 C       -1.9270    10.0251    16.2968 C.3   371 MOH   0.0850 
2223 H       -1.4094    10.3939    15.4103 H     371 MOH   0.0600 
2224 H       -1.8594     8.9376    16.3028 H     371 MOH   0.0600 
2225 H       -1.4098    10.4015    17.1789 H     371 MOH   0.0600 
2226 H       -3.6993    10.1062    15.5056 H     371 MOH   0.4180 
2227 O       -5.7928    17.3870     0.3088 O.3   372 MOH  -0.6830 
2228 C       -4.9178    17.6277     1.3984 C.3   372 MOH   0.0850 
2229 H       -4.3738    16.7233     1.6706 H     372 MOH   0.0600 
2230 H       -5.4742    17.9664     2.2737 H     372 MOH   0.0600 
2231 H       -4.1890    18.3974     1.1416 H     372 MOH   0.0600 
2232 H       -6.2666    18.2149     0.1366 H     372 MOH   0.4180 
2233 O       -5.3829    -1.9922    -7.8006 O.3   373 MOH  -0.6830 
2234 C       -4.9810    -3.3208    -7.5310 C.3   373 MOH   0.0850 
2235 H       -5.8441    -3.9874    -7.5318 H     373 MOH   0.0600 
2236 H       -4.5039    -3.3842    -6.5516 H     373 MOH   0.0600 
2237 H       -4.2790    -3.6761    -8.2841 H     373 MOH   0.0600 
2238 H       -6.0855    -1.7872    -7.1710 H     373 MOH   0.4180 
2239 O        6.6940    -1.1615    12.7406 O.3   374 MOH  -0.6830 
2240 C        5.7676    -1.8738    13.5433 C.3   374 MOH   0.0850 
2241 H        5.4826    -1.2860    14.4152 H     374 MOH   0.0600 
2242 H        6.1952    -2.8113    13.8982 H     374 MOH   0.0600 
2243 H        4.8602    -2.1031    12.9827 H     374 MOH   0.0600 
2244 H        6.2702    -0.3416    12.4699 H     374 MOH   0.4180 
2245 O       -8.7283    12.5259    -4.4811 O.3   375 MOH  -0.6830 
2246 C       -8.3363    11.2333    -4.9088 C.3   375 MOH   0.0850 
2247 H       -7.2564    11.1871    -5.0589 H     375 MOH   0.0600 
2248 H       -8.8260    10.9662    -5.8460 H     375 MOH   0.0600 
2249 H       -8.6077    10.4852    -4.1624 H     375 MOH   0.0600 
2250 H       -8.5067    13.1491    -5.1626 H     375 MOH   0.4180 
2251 O       -0.0757    11.9443    10.4935 O.3   376 MOH  -0.6830 
2252 C        0.2786    12.0386    11.8588 C.3   376 MOH   0.0850 
2253 H        0.8736    12.9315    12.0408 H     376 MOH   0.0600 
2254 H        0.8628    11.1701    12.1639 H     376 MOH   0.0600 
2255 H       -0.6131    12.0865    12.4852 H     376 MOH   0.0600 
2256 H       -0.6071    11.1446    10.4063 H     376 MOH   0.4180 
2257 O       -4.9950     2.3032     8.5473 O.3   377 MOH  -0.6830 
2258 C       -4.9552     0.9042     8.3358 C.3   377 MOH   0.0850 
2259 H       -5.9380     0.5324     8.0480 H     377 MOH   0.0600 
2260 H       -4.6495     0.3876     9.2463 H     377 MOH   0.0600 
2261 H       -4.2494     0.6527     7.5427 H     377 MOH   0.0600 
2262 H       -5.6474     2.4874     9.2366 H     377 MOH   0.4180 
2263 O       26.7413    -2.9239     2.6242 O.3   378 MOH  -0.6830 
2264 C       25.5188    -2.9945     1.9174 C.3   378 MOH   0.0850 
2265 H       24.8683    -2.1636     2.1918 H     378 MOH   0.0600 
2266 H       24.9986    -3.9267     2.1422 H     378 MOH   0.0600 
2267 H       25.6976    -2.9536     0.8421 H     378 MOH   0.0600 
2268 H       27.3112    -3.6338     2.2953 H     378 MOH   0.4180 
2269 O        0.5988    -2.5066    18.2184 O.3   379 MOH  -0.6830 
2270 C        0.4166    -3.3594    19.3348 C.3   379 MOH   0.0850 
2271 H        1.0040    -3.0057    20.1825 H     379 MOH   0.0600 
2272 H        0.7345    -4.3768    19.1065 H     379 MOH   0.0600 
2273 H       -0.6305    -3.3891    19.6374 H     379 MOH   0.0600 
2274 H        0.6100    -1.5973    18.5488 H     379 MOH   0.4180 
2275 O      -12.4867     1.8833    15.5769 O.3   380 MOH  -0.6830 
2276 C      -11.2008     1.3936    15.2497 C.3   380 MOH   0.0850 
2277 H      -10.7951     0.8096    16.0768 H     380 MOH   0.0600 
2278 H      -10.5170     2.2193    15.0480 H     380 MOH   0.0600 
2279 H      -11.2432     0.7570    14.3654 H     380 MOH   0.0600 
2280 H      -12.3860     2.4535    16.3459 H     380 MOH   0.4180 
2281 O       -8.7588    16.1988     5.6715 O.3   381 MOH  -0.6830 
2282 C       -7.9869    17.3702     5.8832 C.3   381 MOH   0.0850 
2283 H       -7.8754    17.9330     4.9556 H     381 MOH   0.0600 
2284 H       -6.9898    17.1172     6.2444 H     381 MOH   0.0600 
2285 H       -8.4638    18.0154     6.6216 H     381 MOH   0.0600 
2286 H       -8.3081    15.6672     5.0034 H     381 MOH   0.4180 
2287 O       -1.4212     9.5447    10.3875 O.3   382 MOH  -0.6830 
2288 C       -2.5132     9.6081     9.4907 C.3   382 MOH   0.0850 
2289 H       -3.3690    10.0989     9.9534 H     382 MOH   0.0600 
2290 H       -2.8153     8.6067     9.1829 H     382 MOH   0.0600 
2291 H       -2.2402    10.1702     8.5969 H     382 MOH   0.0600 
2292 H       -0.6791     9.1495     9.9091 H     382 MOH   0.4180 
2293 O        8.3166    10.0536    12.5347 O.3   383 MOH  -0.6830 
2294 C        7.4646    10.9845    11.8909 C.3   383 MOH   0.0850 
2295 H        8.0437    11.8005    11.4587 H     383 MOH   0.0600 
2296 H        6.7531    11.4082    12.5994 H     383 MOH   0.0600 
2297 H        6.9042    10.5057    11.0880 H     383 MOH   0.0600 
2298 H        7.7584     9.3425    12.8913 H     383 MOH   0.4180 
2299 O      -11.0074    12.0335    13.5393 O.3   384 MOH  -0.6830 
2300 C      -11.2406    12.0005    14.9314 C.3   384 MOH   0.0850 
2301 H      -10.7835    12.8657    15.4106 H     384 MOH   0.0600 
2302 H      -10.8107    11.0960    15.3595 H     384 MOH   0.0600 
2303 H      -12.3084    12.0066    15.1503 H     384 MOH   0.0600 
2304 H      -10.0585    11.9567    13.4021 H     384 MOH   0.4180 
2305 O       -7.4779    14.5915     3.7807 O.3   385 MOH  -0.6830 
2306 C       -6.1403    14.9041     4.1191 C.3   385 MOH   0.0850 
2307 H       -5.9038    15.9202     3.8040 H     385 MOH   0.0600 
2308 H       -5.4421    14.2284     3.6236 H     385 MOH   0.0600 
2309 H       -5.9904    14.8349     5.1957 H     385 MOH   0.0600 
2310 H       -7.5571    14.7449     2.8273 H     385 MOH   0.4180 
2311 O        4.9994     8.5206     9.0365 O.3   386 MOH  -0.6830 
2312 C        5.0128     8.3990    10.4446 C.3   386 MOH   0.0850 
2313 H        6.0374     8.2847    10.7988 H     386 MOH   0.0600 
2314 H        4.4490     7.5218    10.7622 H     386 MOH   0.0600 
2315 H        4.5760     9.2785    10.9185 H     386 MOH   0.0600 
2316 H        5.4640     7.7483     8.6822 H     386 MOH   0.4180 
2317 O       28.3126    10.0964    17.9009 O.3   387 MOH  -0.6830 
2318 C       29.6037    10.2915    18.4461 C.3   387 MOH   0.0850 
2319 H       30.0241     9.3476    18.7954 H     387 MOH   0.0600 
2320 H       29.5651    10.9803    19.2901 H     387 MOH   0.0600 
2321 H       30.2781    10.7106    17.6999 H     387 MOH   0.0600 
2322 H       28.3636     9.4057    17.2327 H     387 MOH   0.4180 
2323 O       11.8459     2.2074   -15.9601 O.3   388 MOH  -0.6830 
2324 C       10.8621     2.8352   -15.1551 C.3   388 MOH   0.0850 
2325 H        9.9799     3.0829   -15.7476 H     388 MOH   0.0600 
2326 H       11.2472     3.7564   -14.7162 H     388 MOH   0.0600 
2327 H       10.5497     2.1778   -14.3424 H     388 MOH   0.0600 
2328 H       12.5753     1.9644   -15.4026 H     388 MOH   0.4180 
2329 O      -10.4204    -2.6265     9.3391 O.3   389 MOH  -0.6830 
2330 C      -11.4637    -2.4539     8.3991 C.3   389 MOH   0.0850 
2331 H      -12.0033    -1.5255     8.5903 H     389 MOH   0.0600 
2332 H      -12.1765    -3.2770     8.4611 H     389 MOH   0.0600 
2333 H      -11.0702    -2.4209     7.3833 H     389 MOH   0.0600 
2334 H      -10.8355    -2.7197    10.2051 H     389 MOH   0.4180 
2335 O       -0.5056    -2.7119    13.4937 O.3   390 MOH  -0.6830 
2336 C       -0.6287    -4.0687    13.1096 C.3   390 MOH   0.0850 
2337 H        0.0246    -4.6957    13.7167 H     390 MOH   0.0600 
2338 H       -0.3589    -4.2055    12.0619 H     390 MOH   0.0600 
2339 H       -1.6528    -4.4163    13.2480 H     390 MOH   0.0600 
2340 H       -0.7866    -2.6481    14.4185 H     390 MOH   0.4180 
2341 O       -1.0689     6.7767    14.4402 O.3   391 MOH  -0.6830 
2342 C       -1.7106     7.5416    13.4370 C.3   391 MOH   0.0850 
2343 H       -2.5052     6.9656    12.9615 H     391 MOH   0.0600 
2344 H       -0.9998     7.8527    12.6710 H     391 MOH   0.0600 
2345 H       -2.1553     8.4372    13.8674 H     391 MOH   0.0600 
2346 H       -1.7439     6.5001    15.0714 H     391 MOH   0.4180 
2347 O        7.4036     6.9604    17.9916 O.3   392 MOH  -0.6830 
2348 C        6.0758     7.3690    18.2553 C.3   392 MOH   0.0850 
2349 H        5.9495     7.5850    19.3168 H     392 MOH   0.0600 
2350 H        5.3679     6.5871    17.9776 H     392 MOH   0.0600 
2351 H        5.8319     8.2692    17.6906 H     392 MOH   0.0600 
2352 H        7.9920     7.6836    18.2491 H     392 MOH   0.4180 
2353 O        0.5734    12.8620    14.9817 O.3   393 MOH  -0.6830 
2354 C       -0.5360    13.4316    15.6411 C.3   393 MOH   0.0850 
2355 H       -1.2527    13.8151    14.9142 H     393 MOH   0.0600 
2356 H       -0.2114    14.2566    16.2759 H     393 MOH   0.0600 
2357 H       -1.0396    12.6954    16.2662 H     393 MOH   0.0600 
2358 H        1.0296    13.5734    14.5176 H     393 MOH   0.4180 
2359 O       -9.4494    16.5239    12.7308 O.3   394 MOH  -0.6830 
2360 C       -9.1864    15.2822    12.1089 C.3   394 MOH   0.0850 
2361 H       -9.3690    15.3461    11.0354 H     394 MOH   0.0600 
2362 H       -9.8267    14.5012    12.5211 H     394 MOH   0.0600 
2363 H       -8.1466    14.9923    12.2640 H     394 MOH   0.0600 
2364 H      -10.3584    16.7445    12.5829 H     394 MOH   0.4180 
2365 O       -3.0899     6.0683    16.2120 O.3   395 MOH  -0.6830 
2366 C       -3.8220     6.9385    17.0545 C.3   395 MOH   0.0850 
2367 H       -3.1776     7.3754    17.8181 H     395 MOH   0.0600 
2368 H       -4.6275     6.3985    17.5532 H     395 MOH   0.0600 
2369 H       -4.2641     7.7498    16.4743 H     395 MOH   0.0600 
2370 H       -3.7125     5.6978    15.5724 H     395 MOH   0.4180 
2371 O        1.0088     9.7440    18.7614 O.3   396 MOH  -0.6830 
2372 C        1.5242    10.6110    17.7685 C.3   396 MOH   0.0850 
2373 H        1.0316    10.4411    16.8109 H     396 MOH   0.0600 
2374 H        2.5935    10.4460    17.6324 H     396 MOH   0.0600 
2375 H        1.3689    11.6534    18.0484 H     396 MOH   0.0600 
2376 H        1.1587     8.8419    18.4736 H     396 MOH   0.4180 
2377 O        2.6293    -7.3731    17.3186 O.3   397 MOH  -0.6830 
2378 C        2.8079    -7.4507    18.7209 C.3   397 MOH   0.0850 
2379 H        3.4971    -6.6791    19.0648 H     397 MOH   0.0600 
2380 H        3.2202    -8.4198    19.0041 H     397 MOH   0.0600 
2381 H        1.8573    -7.3154    19.2381 H     397 MOH   0.0600 
2382 H        3.5010    -7.3980    16.9056 H     397 MOH   0.4180 
2383 O       15.3322   -20.0215    17.8676 O.3   398 MOH  -0.6830 
2384 C       14.3184   -20.4434    16.9728 C.3   398 MOH   0.0850 
2385 H       13.4122   -20.7081    17.5188 H     398 MOH   0.0600 
2386 H       14.6400   -21.3148    16.4006 H     398 MOH   0.0600 
2387 H       14.0711   -19.6474    16.2697 H     398 MOH   0.0600 
2388 H       15.0038   -19.2423    18.3368 H     398 MOH   0.4180 
2389 O       12.7721    14.1598    11.5826 O.3   399 MOH  -0.6830 
2390 C       13.4293    14.3083    10.3397 C.3   399 MOH   0.0850 
2391 H       12.7113    14.5013     9.5421 H     399 MOH   0.0600 
2392 H       13.9877    13.4049    10.0904 H     399 MOH   0.0600 
2393 H       14.1308    15.1425    10.3776 H     399 MOH   0.0600 
2394 H       13.4506    13.9788    12.2465 H     399 MOH   0.4180 
2395 O       24.3942    12.8418    18.3218 O.3   400 MOH  -0.6830 
2396 C       25.5286    12.1753    17.8028 C.3   400 MOH   0.0850 
2397 H       26.1355    12.8583    17.2080 H     400 MOH   0.0600 
2398 H       25.2282    11.3403    17.1693 H     400 MOH   0.0600 
2399 H       26.1473    11.7813    18.6095 H     400 MOH   0.0600 
2400 H       23.9054    12.2179    18.8709 H     400 MOH   0.4180 
2401 O       -4.0062    11.6633     2.9129 O.3   401 MOH  -0.6830 
2402 C       -5.3694    11.3082     3.0417 C.3   401 MOH   0.0850 
2403 H       -5.9585    11.6951     2.2103 H     401 MOH   0.0600 
2404 H       -5.7778    11.7160     3.9643 H     401 MOH   0.0600 
2405 H       -5.4806    10.2233     3.0710 H     401 MOH   0.0600 
2406 H       -3.5361    11.2413     3.6460 H     401 MOH   0.4180 
2407 O        0.4837     0.0630    19.0894 O.3   402 MOH  -0.6830 
2408 C       -0.3968     0.7755    18.2408 C.3   402 MOH   0.0850 
2409 H       -1.4017     0.8042    18.6642 H     402 MOH   0.0600 
2410 H       -0.4548     0.3051    17.2590 H     402 MOH   0.0600 
2411 H       -0.0548     1.8022    18.1074 H     402 MOH   0.0600 
2412 H        0.5149     0.5304    19.9311 H     402 MOH   0.4180 
2413 O        0.6406     8.6589     8.8460 O.3   403 MOH  -0.6830 
2414 C        1.6263     9.5697     8.4029 C.3   403 MOH   0.0850 
2415 H        1.9881    10.1839     9.2279 H     403 MOH   0.0600 
2416 H        1.2210    10.2272     7.6330 H     403 MOH   0.0600 
2417 H        2.4717     9.0297     7.9776 H     403 MOH   0.0600 
2418 H        0.3989     8.1099     8.0893 H     403 MOH   0.4180 
2419 O       11.3833     6.6059   -17.7118 O.3   404 MOH  -0.6830 
2420 C       10.3951     6.6262   -16.7000 C.3   404 MOH   0.0850 
2421 H       10.0568     5.6134   -16.4785 H     404 MOH   0.0600 
2422 H        9.5304     7.2094   -17.0185 H     404 MOH   0.0600 
2423 H       10.7901     7.0675   -15.7838 H     404 MOH   0.0600 
2424 H       10.9862     6.2109   -18.5028 H     404 MOH   0.4180 
2425 O        1.3422    13.8705     9.2233 O.3   405 MOH  -0.6830 
2426 C        1.6973    13.4105     7.9318 C.3   405 MOH   0.0850 
2427 H        0.8209    13.0392     7.3977 H     405 MOH   0.0600 
2428 H        2.4201    12.5968     8.0017 H     405 MOH   0.0600 
2429 H        2.1402    14.2133     7.3415 H     405 MOH   0.0600 
2430 H        0.8622    13.1490     9.6630 H     405 MOH   0.4180 
2431 O       -8.7379    14.8752     8.1465 O.3   406 MOH  -0.6830 
2432 C       -7.4205    15.0494     8.6291 C.3   406 MOH   0.0850 
2433 H       -6.6915    14.7995     7.8573 H     406 MOH   0.0600 
2434 H       -7.2411    14.4082     9.4922 H     406 MOH   0.0600 
2435 H       -7.2598    16.0854     8.9298 H     406 MOH   0.0600 
2436 H       -8.8414    15.4168     7.3590 H     406 MOH   0.4180 
2437 O       -7.3805     9.2939    14.4602 O.3   407 MOH  -0.6830 
2438 C       -7.8625     9.2085    15.7879 C.3   407 MOH   0.0850 
2439 H       -7.7048    10.1492    16.3170 H     407 MOH   0.0600 
2440 H       -7.3444     8.4215    16.3364 H     407 MOH   0.0600 
2441 H       -8.9312     8.9902    15.7945 H     407 MOH   0.0600 
2442 H       -7.8159    10.0452    14.0427 H     407 MOH   0.4180 
2443 O       -1.1393    15.1369     8.9450 O.3   408 MOH  -0.6830 
2444 C       -1.0396    16.3925     8.3012 C.3   408 MOH   0.0850 
2445 H       -0.5610    16.2863     7.3269 H     408 MOH   0.0600 
2446 H       -0.4460    17.0844     8.9001 H     408 MOH   0.0600 
2447 H       -2.0279    16.8286     8.1510 H     408 MOH   0.0600 
2448 H       -0.2475    14.7933     9.0542 H     408 MOH   0.4180 
2449 O       -8.2548    11.6878    13.2835 O.3   409 MOH  -0.6830 
2450 C       -8.0377    11.6286    11.8848 C.3   409 MOH   0.0850 
2451 H       -7.1320    11.0661    11.6565 H     409 MOH   0.0600 
2452 H       -7.9300    12.6296    11.4671 H     409 MOH   0.0600 
2453 H       -8.8769    11.1443    11.3854 H     409 MOH   0.0600 
2454 H       -7.5752    12.2672    13.6627 H     409 MOH   0.4180 
2455 O        2.6360    16.0892    -2.1558 O.3   410 MOH  -0.6830 
2456 C        3.5167    17.0899    -2.6258 C.3   410 MOH   0.0850 
2457 H        3.1264    18.0816    -2.3930 H     410 MOH   0.0600 
2458 H        3.6486    17.0122    -3.7056 H     410 MOH   0.0600 
2459 H        4.4925    16.9882    -2.1509 H     410 MOH   0.0600 
2460 H        2.6135    16.1520    -1.1897 H     410 MOH   0.4180 
2461 O        3.1574    14.4104    11.2351 O.3   411 MOH  -0.6830 
2462 C        4.0813    13.3383    11.2314 C.3   411 MOH   0.0850 
2463 H        4.6250    13.3042    10.2868 H     411 MOH   0.0600 
2464 H        3.5665    12.3852    11.3627 H     411 MOH   0.0600 
2465 H        4.8056    13.4508    12.0385 H     411 MOH   0.0600 
2466 H        2.5776    14.3000    10.4729 H     411 MOH   0.4180 
2467 O        5.7067     6.9815     2.3570 O.3   412 MOH  -0.6830 
2468 C        6.4117     8.0631     2.9341 C.3   412 MOH   0.0850 
2469 H        7.3546     8.2207     2.4104 H     412 MOH   0.0600 
2470 H        6.6315     7.8700     3.9838 H     412 MOH   0.0600 
2471 H        5.8227     8.9790     2.8685 H     412 MOH   0.0600 
2472 H        5.7195     7.1075     1.3988 H     412 MOH   0.4180 
2473 O       -6.3304    13.2728    14.4095 O.3   413 MOH  -0.6830 
2474 C       -5.7793    12.5503    15.4959 C.3   413 MOH   0.0850 
2475 H       -4.7091    12.7436    15.5771 H     413 MOH   0.0600 
2476 H       -5.9206    11.4792    15.3681 H     413 MOH   0.0600 
2477 H       -6.2499    12.8462    16.4343 H     413 MOH   0.0600 
2478 H       -6.1108    14.2006    14.5650 H     413 MOH   0.4180 
2479 O       -7.1351    10.7591    19.0710 O.3   414 MOH  -0.6830 
2480 C       -5.8213    10.2383    18.9943 C.3   414 MOH   0.0850 
2481 H       -5.0824    11.0352    19.0767 H     414 MOH   0.0600 
2482 H       -5.6612     9.7271    18.0446 H     414 MOH   0.0600 
2483 H       -5.6429     9.5275    19.8019 H     414 MOH   0.0600 
2484 H       -7.2325    11.1984    19.9224 H     414 MOH   0.4180 
2485 O       -1.0011    13.0573     0.3235 O.3   415 MOH  -0.6830 
2486 C       -0.3532    12.0250    -0.3941 C.3   415 MOH   0.0850 
2487 H        0.7259    12.1811    -0.4158 H     415 MOH   0.0600 
2488 H       -0.7170    11.9928    -1.4206 H     415 MOH   0.0600 
2489 H       -0.5484    11.0559     0.0650 H     415 MOH   0.0600 
2490 H       -1.9537    12.9205     0.2393 H     415 MOH   0.4180 
2491 O       -2.8169    10.4868     5.0883 O.3   416 MOH  -0.6830 
2492 C       -2.3431     9.1988     5.4345 C.3   416 MOH   0.0850 
2493 H       -1.5841     9.2667     6.2150 H     416 MOH   0.0600 
2494 H       -1.8989     8.7048     4.5705 H     416 MOH   0.0600 
2495 H       -3.1574     8.5734     5.8029 H     416 MOH   0.0600 
2496 H       -3.2109    10.8774     5.8797 H     416 MOH   0.4180 
2497 O       -3.4750    -5.2404    10.0628 O.3   417 MOH  -0.6830 
2498 C       -3.4521    -6.0250    11.2402 C.3   417 MOH   0.0850 
2499 H       -2.4391    -6.3628    11.4610 H     417 MOH   0.0600 
2500 H       -4.0896    -6.9025    11.1288 H     417 MOH   0.0600 
2501 H       -3.8123    -5.4466    12.0916 H     417 MOH   0.0600 
2502 H       -4.3844    -4.9457     9.9163 H     417 MOH   0.4180 
2503 O      -10.1668    -8.0782    20.0653 O.3   418 MOH  -0.6830 
2504 C       -9.4784    -6.8853    19.7422 C.3   418 MOH   0.0850 
2505 H       -8.4069    -7.0665    19.6521 H     418 MOH   0.0600 
2506 H       -9.6356    -6.1340    20.5169 H     418 MOH   0.0600 
2507 H       -9.8382    -6.4785    18.7968 H     418 MOH   0.0600 
2508 H      -11.1007    -7.8510    20.1709 H     418 MOH   0.4180 
2509 O       10.6469    -5.9123    11.2739 O.3   419 MOH  -0.6830 
2510 C       10.9904    -7.2411    10.9300 C.3   419 MOH   0.0850 
2511 H       10.1995    -7.7066    10.3422 H     419 MOH   0.0600 
2512 H       11.1411    -7.8411    11.8273 H     419 MOH   0.0600 
2513 H       11.9085    -7.2620    10.3442 H     419 MOH   0.0600 
2514 H        9.7444    -5.9248    11.6128 H     419 MOH   0.4180 
2515 O       -5.9824     9.5062     9.5129 O.3   420 MOH  -0.6830 
2516 C       -5.8573     8.8583     8.2648 C.3   420 MOH   0.0850 
2517 H       -6.6201     9.2215     7.5764 H     420 MOH   0.0600 
2518 H       -5.9970     7.7856     8.3856 H     420 MOH   0.0600 
2519 H       -4.8790     9.0362     7.8185 H     420 MOH   0.0600 
2520 H       -6.8602     9.2886     9.8469 H     420 MOH   0.4180 
2521 O        7.5348    -6.9618     5.7354 O.3   421 MOH  -0.6830 
2522 C        7.3373    -6.1704     4.5792 C.3   421 MOH   0.0850 
2523 H        8.1152    -5.4101     4.4992 H     421 MOH   0.0600 
2524 H        6.3698    -5.6681     4.6220 H     421 MOH   0.0600 
2525 H        7.3661    -6.7848     3.6789 H     421 MOH   0.0600 
2526 H        7.5150    -6.3638     6.4935 H     421 MOH   0.4180 
2527 O       -0.2564     7.8143     0.6998 O.3   422 MOH  -0.6830 
2528 C        0.1923     7.6259     2.0280 C.3   422 MOH   0.0850 
2529 H       -0.2013     8.4071     2.6797 H     422 MOH   0.0600 
2530 H        1.2819     7.6579     2.0728 H     422 MOH   0.0600 
2531 H       -0.1365     6.6595     2.4121 H     422 MOH   0.0600 
2532 H       -1.2221     7.7861     0.6947 H     422 MOH   0.4180 
2533 O        2.6895    11.3772     5.4953 O.3   423 MOH  -0.6830 
2534 C        3.2681    12.4661     4.8044 C.3   423 MOH   0.0850 
2535 H        3.9897    12.1080     4.0707 H     423 MOH   0.0600 
2536 H        3.7871    13.1284     5.4978 H     423 MOH   0.0600 
2537 H        2.5041    13.0435     4.2828 H     423 MOH   0.0600 
2538 H        3.3953    10.9102     5.9583 H     423 MOH   0.4180 
2539 O        7.5206    -8.8058    11.9006 O.3   424 MOH  -0.6830 
2540 C        6.5701    -9.2043    10.9316 C.3   424 MOH   0.0850 
2541 H        5.6827    -8.5717    10.9793 H     424 MOH   0.0600 
2542 H        6.2610   -10.2363    11.0980 H     424 MOH   0.0600 
2543 H        6.9895    -9.1287     9.9276 H     424 MOH   0.0600 
2544 H        8.2825    -9.3992    11.8497 H     424 MOH   0.4180 
2545 O        0.0967    10.5132    -3.5399 O.3   425 MOH  -0.6830 
2546 C        0.8262    10.0033    -4.6370 C.3   425 MOH   0.0850 
2547 H        0.8132     8.9129    -4.6317 H     425 MOH   0.0600 
2548 H        1.8651    10.3311    -4.5885 H     425 MOH   0.0600 
2549 H        0.3985    10.3452    -5.5794 H     425 MOH   0.0600 
2550 H        0.4156    10.0623    -2.7473 H     425 MOH   0.4180 
2551 O       -3.3709     0.5555    13.4553 O.3   426 MOH  -0.6830 
2552 C       -1.9854     0.3640    13.2121 C.3   426 MOH   0.0850 
2553 H       -1.8245    -0.1678    12.2730 H     426 MOH   0.0600 
2554 H       -1.5314    -0.2211    14.0138 H     426 MOH   0.0600 
2555 H       -1.4643     1.3206    13.1566 H     426 MOH   0.0600 
2556 H       -3.7836    -0.3025    13.4254 H     426 MOH   0.4180 
2557 O        8.2714    -2.3448    10.8092 O.3   427 MOH  -0.6830 
2558 C        9.6348    -2.4863    11.1576 C.3   427 MOH   0.0850 
2559 H        9.7420    -3.1289    12.0318 H     427 MOH   0.0600 
2560 H       10.0786    -1.5163    11.3850 H     427 MOH   0.0600 
2561 H       10.1952    -2.9336    10.3353 H     427 MOH   0.0600 
2562 H        7.7967    -1.9593    11.5530 H     427 MOH   0.4180 
2563 O        6.9315     1.6906     9.6872 O.3   428 MOH  -0.6830 
2564 C        7.6919     0.5422     9.3668 C.3   428 MOH   0.0850 
2565 H        8.4150     0.3304    10.1551 H     428 MOH   0.0600 
2566 H        8.2374     0.6896     8.4356 H     428 MOH   0.0600 
2567 H        7.0463    -0.3292     9.2496 H     428 MOH   0.0600 
2568 H        6.4578     1.5037    10.5061 H     428 MOH   0.4180 
2569 O       -4.3210    16.5654    -1.9350 O.3   429 MOH  -0.6830 
2570 C       -2.9624    16.6338    -1.5466 C.3   429 MOH   0.0850 
2571 H       -2.7606    15.9335    -0.7356 H     429 MOH   0.0600 
2572 H       -2.7140    17.6375    -1.1990 H     429 MOH   0.0600 
2573 H       -2.3091    16.3871    -2.3835 H     429 MOH   0.0600 
2574 H       -4.8526    16.8497    -1.1838 H     429 MOH   0.4180 
2575 O        5.1786    16.5025     7.2728 O.3   430 MOH  -0.6830 
2576 C        4.4261    16.0580     8.3862 C.3   430 MOH   0.0850 
2577 H        4.8934    16.3720     9.3206 H     430 MOH   0.0600 
2578 H        4.3581    14.9698     8.3900 H     430 MOH   0.0600 
2579 H        3.4141    16.4640     8.3561 H     430 MOH   0.0600 
2580 H        6.0519    16.0939     7.3209 H     430 MOH   0.4180 
2581 O        9.5735     8.8770    10.3829 O.3   431 MOH  -0.6830 
2582 C        9.7933     7.5411    10.7940 C.3   431 MOH   0.0850 
2583 H       10.4558     7.5139    11.6599 H     431 MOH   0.0600 
2584 H       10.2485     6.9573     9.9936 H     431 MOH   0.0600 
2585 H        8.8501     7.0678    11.0716 H     431 MOH   0.0600 
2586 H        9.1402     9.3281    11.1160 H     431 MOH   0.4180 
2587 O       -4.5754     2.9015    12.5307 O.3   432 MOH  -0.6830 
2588 C       -3.5918     3.3982    11.6399 C.3   432 MOH   0.0850 
2589 H       -3.9506     4.2840    11.1138 H     432 MOH   0.0600 
2590 H       -3.3337     2.6406    10.8987 H     432 MOH   0.0600 
2591 H       -2.6841     3.6623    12.1840 H     432 MOH   0.0600 
2592 H       -4.2179     2.0896    12.9111 H     432 MOH   0.4180 
2593 O       -0.9552    -5.5222     5.5402 O.3   433 MOH  -0.6830 
2594 C       -1.6667    -6.6291     6.0616 C.3   433 MOH   0.0850 
2595 H       -0.9856    -7.4487     6.2931 H     433 MOH   0.0600 
2596 H       -2.3998    -6.9885     5.3401 H     433 MOH   0.0600 
2597 H       -2.1930    -6.3540     6.9769 H     433 MOH   0.0600 
2598 H       -0.2970    -5.2671     6.1981 H     433 MOH   0.4180 
2599 O        1.3931    14.8225    -4.2125 O.3   434 MOH  -0.6830 
2600 C        0.2543    14.1236    -3.7459 C.3   434 MOH   0.0850 
2601 H       -0.4379    14.8061    -3.2517 H     434 MOH   0.0600 
2602 H        0.5421    13.3544    -3.0297 H     434 MOH   0.0600 
2603 H       -0.2689    13.6388    -4.5706 H     434 MOH   0.0600 
2604 H        1.8160    15.2461    -3.4510 H     434 MOH   0.4180 
2605 O       -6.6496     2.8866    10.6383 O.3   435 MOH  -0.6830 
2606 C       -7.8937     3.3825    11.0927 C.3   435 MOH   0.0850 
2607 H       -8.2999     2.7409    11.8757 H     435 MOH   0.0600 
2608 H       -8.6120     3.4220    10.2730 H     435 MOH   0.0600 
2609 H       -7.7817     4.3881    11.4988 H     435 MOH   0.0600 
2610 H       -6.0362     2.8839    11.3808 H     435 MOH   0.4180 
2611 O        6.7611    18.4682    16.2752 O.3   436 MOH  -0.6830 
2612 C        6.5152    19.1605    17.4835 C.3   436 MOH   0.0850 
2613 H        6.9814    18.6427    18.3232 H     436 MOH   0.0600 
2614 H        5.4440    19.2335    17.6735 H     436 MOH   0.0600 
2615 H        6.9259    20.1699    17.4355 H     436 MOH   0.0600 
2616 H        7.7170    18.3746    16.1892 H     436 MOH   0.4180 
2617 O        6.0134    19.1516     7.2464 O.3   437 MOH  -0.6830 
2618 C        6.1021    19.3888     8.6419 C.3   437 MOH   0.0850 
2619 H        5.1050    19.4592     9.0793 H     437 MOH   0.0600 
2620 H        6.6347    20.3155     8.8575 H     437 MOH   0.0600 
2621 H        6.6283    18.5721     9.1385 H     437 MOH   0.0600 
2622 H        5.5553    18.3059     7.1487 H     437 MOH   0.4180 
2623 O       -1.1339    -2.5268    16.1169 O.3   438 MOH  -0.6830 
2624 C       -2.3954    -2.2204    16.6776 C.3   438 MOH   0.0850 
2625 H       -2.3583    -1.2744    17.2187 H     438 MOH   0.0600 
2626 H       -2.7003    -3.0004    17.3762 H     438 MOH   0.0600 
2627 H       -3.1530    -2.1378    15.8981 H     438 MOH   0.0600 
2628 H       -0.4990    -2.5866    16.8441 H     438 MOH   0.4180 
2629 O        1.7644    14.9136    13.5628 O.3   439 MOH  -0.6830 
2630 C        0.8595    15.9672    13.2933 C.3   439 MOH   0.0850 
2631 H        0.2308    16.1679    14.1615 H     439 MOH   0.0600 
2632 H        0.2149    15.7122    12.4512 H     439 MOH   0.0600 
2633 H        1.3993    16.8815    13.0448 H     439 MOH   0.0600 
2634 H        2.3135    14.7949    12.7779 H     439 MOH   0.4180 
2635 O       28.3149     7.9377    16.0623 O.3   440 MOH  -0.6830 
2636 C       27.1354     7.3731    16.6066 C.3   440 MOH   0.0850 
2637 H       27.3538     6.4099    17.0693 H     440 MOH   0.0600 
2638 H       26.3934     7.2154    15.8228 H     440 MOH   0.0600 
2639 H       26.6945     8.0229    17.3625 H     440 MOH   0.0600 
2640 H       28.6016     7.3521    15.3568 H     440 MOH   0.4180 
2641 O       -3.5218    13.8698     8.8580 O.3   441 MOH  -0.6830 
2642 C       -3.8470    13.2890    10.1083 C.3   441 MOH   0.0850 
2643 H       -4.7617    12.6984    10.0376 H     441 MOH   0.0600 
2644 H       -3.9937    14.0631    10.8627 H     441 MOH   0.0600 
2645 H       -3.0416    12.6343    10.4450 H     441 MOH   0.0600 
2646 H       -2.6745    14.3303     8.9710 H     441 MOH   0.4180 
2647 O       -4.7895     5.0750    14.2865 O.3   442 MOH  -0.6830 
2648 C       -5.6286     6.0945    13.7775 C.3   442 MOH   0.0850 
2649 H       -6.6310     5.7088    13.5879 H     442 MOH   0.0600 
2650 H       -5.2286     6.4912    12.8436 H     442 MOH   0.0600 
2651 H       -5.7102     6.9161    14.4893 H     442 MOH   0.0600 
2652 H       -4.7954     4.3416    13.6630 H     442 MOH   0.4180 
2653 O        9.7711    17.7371    13.2157 O.3   443 MOH  -0.6830 
2654 C        8.5050    18.2216    12.8004 C.3   443 MOH   0.0850 
2655 H        7.7348    17.4635    12.9488 H     443 MOH   0.0600 
2656 H        8.5196    18.4844    11.7418 H     443 MOH   0.0600 
2657 H        8.2191    19.1081    13.3672 H     443 MOH   0.0600 
2658 H        9.9705    16.9633    12.6671 H     443 MOH   0.4180 
2659 O       -4.3961    17.6495     5.1241 O.3   444 MOH  -0.6830 
2660 C       -3.2317    18.3876     4.8080 C.3   444 MOH   0.0850 
2661 H       -3.4931    19.3306     4.3268 H     444 MOH   0.0600 
2662 H       -2.5929    17.8208     4.1306 H     444 MOH   0.0600 
2663 H       -2.6605    18.6099     5.7100 H     444 MOH   0.0600 
2664 H       -4.1274    16.8438     5.5776 H     444 MOH   0.4180 
2665 O        4.9852    18.2932    14.2002 O.3   445 MOH  -0.6830 
2666 C        4.5703    16.9495    14.0411 C.3   445 MOH   0.0850 
2667 H        4.0000    16.8302    13.1192 H     445 MOH   0.0600 
2668 H        3.9420    16.6383    14.8769 H     445 MOH   0.0600 
2669 H        5.4335    16.2844    13.9968 H     445 MOH   0.0600 
2670 H        5.5432    18.3417    14.9890 H     445 MOH   0.4180 
2671 O       -3.6845    12.5837     0.3480 O.3   446 MOH  -0.6830 
2672 C       -4.6313    13.5869     0.0358 C.3   446 MOH   0.0850 
2673 H       -4.4956    14.4570     0.6783 H     446 MOH   0.0600 
2674 H       -5.6458    13.2147     0.1787 H     446 MOH   0.0600 
2675 H       -4.5271    13.9045    -1.0023 H     446 MOH   0.0600 
2676 H       -3.8371    12.3002     1.2604 H     446 MOH   0.4180 
2677 O        0.0725    13.3689     2.8448 O.3   447 MOH  -0.6830 
2678 C       -0.4411    12.3317     3.6553 C.3   447 MOH   0.0850 
2679 H       -0.0086    12.3704     4.6556 H     447 MOH   0.0600 
2680 H       -0.2218    11.3550     3.2229 H     447 MOH   0.0600 
2681 H       -1.5214    12.4299     3.7443 H     447 MOH   0.0600 
2682 H       -0.2839    13.2582     1.9567 H     447 MOH   0.4180 
2683 O       13.1932    14.1453     5.5027 O.3   448 MOH  -0.6830 
2684 C       12.1640    13.7467     4.6226 C.3   448 MOH   0.0850 
2685 H       11.2218    14.2251     4.8907 H     448 MOH   0.0600 
2686 H       12.0310    12.6655     4.6477 H     448 MOH   0.0600 
2687 H       12.4136    14.0282     3.6006 H     448 MOH   0.0600 
2688 H       14.0210    13.8103     5.1448 H     448 MOH   0.4180 
2689 O        0.7283    18.7879    15.1143 O.3   449 MOH  -0.6830 
2690 C        0.4550    19.8288    16.0349 C.3   449 MOH   0.0850 
2691 H        0.6244    20.8047    15.5781 H     449 MOH   0.0600 
2692 H        1.0987    19.7449    16.9113 H     449 MOH   0.0600 
2693 H       -0.5814    19.7877    16.3717 H     449 MOH   0.0600 
2694 H        1.6441    18.8340    14.8707 H     449 MOH   0.4180 
2695 O       -4.0342    11.7490     7.1830 O.3   450 MOH  -0.6830 
2696 C       -5.4142    11.8789     6.9041 C.3   450 MOH   0.0850 
2697 H       -5.7505    11.0861     6.2360 H     450 MOH   0.0600 
2698 H       -5.6211    12.8384     6.4315 H     450 MOH   0.0600 
2699 H       -5.9955    11.8214     7.8252 H     450 MOH   0.0600 
2700 H       -3.8120    12.4365     7.8211 H     450 MOH   0.4180 
2701 O       -3.6538    15.2826     6.3828 O.3   451 MOH  -0.6830 
2702 C       -2.8203    14.5460     5.5057 C.3   451 MOH   0.0850 
2703 H       -3.2694    13.5819     5.2648 H     451 MOH   0.0600 
2704 H       -1.8473    14.3624     5.9633 H     451 MOH   0.0600 
2705 H       -2.6633    15.0889     4.5731 H     451 MOH   0.0600 
2706 H       -3.6930    14.8069     7.2165 H     451 MOH   0.4180 
2707 O        8.8938    16.1733    -2.7994 O.3   452 MOH  -0.6830 
2708 C        7.8808    17.1590    -2.8134 C.3   452 MOH   0.0850 
2709 H        7.8088    17.6090    -3.8040 H     452 MOH   0.0600 
2710 H        8.0936    17.9446    -2.0873 H     452 MOH   0.0600 
2711 H        6.9153    16.7161    -2.5717 H     452 MOH   0.0600 
2712 H        8.6646    15.5213    -3.4746 H     452 MOH   0.4180 
2713 O        9.4732    18.3200    15.9307 O.3   453 MOH  -0.6830 
2714 C       10.2272    17.4762    16.7818 C.3   453 MOH   0.0850 
2715 H       11.2859    17.7358    16.7438 H     453 MOH   0.0600 
2716 H       10.1195    16.4338    16.4793 H     453 MOH   0.0600 
2717 H        9.8897    17.5686    17.8149 H     453 MOH   0.0600 
2718 H        9.6845    18.0880    15.0177 H     453 MOH   0.4180 
2719 O       13.2105    11.8946    -2.0369 O.3   454 MOH  -0.6830 
2720 C       12.6204    10.9032    -2.8567 C.3   454 MOH   0.0850 
2721 H       12.2606    10.0666    -2.2575 H     454 MOH   0.0600 
2722 H       13.3463    10.5239    -3.5758 H     454 MOH   0.0600 
2723 H       11.7766    11.3158    -3.4093 H     454 MOH   0.0600 
2724 H       13.3477    12.6769    -2.5893 H     454 MOH   0.4180 
2725 O        5.6395    19.5392    11.8175 O.3   455 MOH  -0.6830 
2726 C        5.1673    20.8619    11.9662 C.3   455 MOH   0.0850 
2727 H        5.6026    21.3229    12.8539 H     455 MOH   0.0600 
2728 H        4.0822    20.8673    12.0748 H     455 MOH   0.0600 
2729 H        5.4307    21.4650    11.0972 H     455 MOH   0.0600 
2730 H        5.3859    19.0527    12.6108 H     455 MOH   0.4180 
2731 O       -5.5264    15.8012    15.2026 O.3   456 MOH  -0.6830 
2732 C       -6.5760    16.7389    15.0557 C.3   456 MOH   0.0850 
2733 H       -7.1110    16.5726    14.1203 H     456 MOH   0.0600 
2734 H       -6.1846    17.7568    15.0500 H     456 MOH   0.0600 
2735 H       -7.2877    16.6511    15.8771 H     456 MOH   0.0600 
2736 H       -5.0441    16.0180    16.0070 H     456 MOH   0.4180 
2737 O       18.0412    13.7683    17.0729 O.3   457 MOH  -0.6830 
2738 C       17.6459    14.9861    16.4698 C.3   457 MOH   0.0850 
2739 H       17.4152    14.8319    15.4152 H     457 MOH   0.0600 
2740 H       18.4492    15.7205    16.5378 H     457 MOH   0.0600 
2741 H       16.7626    15.3981    16.9588 H     457 MOH   0.0600 
2742 H       18.8252    13.4610    16.5992 H     457 MOH   0.4180 
2743 O       25.1278    13.4474    11.2553 O.3   458 MOH  -0.6830 
2744 C       25.8266    12.8490    12.3306 C.3   458 MOH   0.0850 
2745 H       26.6062    13.5160    12.7018 H     458 MOH   0.0600 
2746 H       26.3029    11.9217    12.0096 H     458 MOH   0.0600 
2747 H       25.1489    12.6212    13.1536 H     458 MOH   0.0600 
2748 H       25.7814    13.6434    10.5710 H     458 MOH   0.4180 
2749 O        1.2750     7.9111    15.2479 O.3   459 MOH  -0.6830 
2750 C        1.7655     8.9169    14.3827 C.3   459 MOH   0.0850 
2751 H        1.0417     9.7269    14.2816 H     459 MOH   0.0600 
2752 H        1.9684     8.5109    13.3909 H     459 MOH   0.0600 
2753 H        2.6919     9.3326    14.7781 H     459 MOH   0.0600 
2754 H        0.4819     7.5277    14.8481 H     459 MOH   0.4180 
2755 O       13.2019    -4.3700    -9.5343 O.3   460 MOH  -0.6830 
2756 C       12.8492    -4.8859    -8.2657 C.3   460 MOH   0.0850 
2757 H       13.6526    -4.7145    -7.5501 H     460 MOH   0.0600 
2758 H       12.6616    -5.9583    -8.3308 H     460 MOH   0.0600 
2759 H       11.9461    -4.4094    -7.8852 H     460 MOH   0.0600 
2760 H       12.4294    -4.4618   -10.1093 H     460 MOH   0.4180 
2761 O       10.8910   -11.4797     2.0083 O.3   461 MOH  -0.6830 
2762 C       11.1561   -12.2944     0.8830 C.3   461 MOH   0.0850 
2763 H       11.5589   -11.6963     0.0664 H     461 MOH   0.0600 
2764 H       10.2443   -12.7836     0.5393 H     461 MOH   0.0600 
2765 H       11.8850   -13.0673     1.1260 H     461 MOH   0.0600 
2766 H       10.5916   -12.0612     2.7221 H     461 MOH   0.4180 
2767 O       15.8578   -10.5624     1.4925 O.3   462 MOH  -0.6830 
2768 C       14.6127   -10.5753     0.8182 C.3   462 MOH   0.0850 
2769 H       14.3098    -9.5610     0.5652 H     462 MOH   0.0600 
2770 H       13.8344   -11.0121     1.4426 H     462 MOH   0.0600 
2771 H       14.6666   -11.1470    -0.1072 H     462 MOH   0.0600 
2772 H       16.4302    -9.9252     1.0420 H     462 MOH   0.4180 
2773 O       15.0191   -13.3702    21.8884 O.3   463 MOH  -0.6830 
2774 C       15.1513   -13.2603    23.2940 C.3   463 MOH   0.0850 
2775 H       16.1353   -13.6061    23.6130 H     463 MOH   0.0600 
2776 H       15.0390   -12.2218    23.6106 H     463 MOH   0.0600 
2777 H       14.3939   -13.8590    23.8014 H     463 MOH   0.0600 
2778 H       15.6969   -12.8003    21.4961 H     463 MOH   0.4180 
2779 O        9.9205    -7.8587    20.6294 O.3   464 MOH  -0.6830 
2780 C        9.7466    -7.0967    19.4519 C.3   464 MOH   0.0850 
2781 H        8.7168    -6.7492    19.3660 H     464 MOH   0.0600 
2782 H        9.9746    -7.6987    18.5720 H     464 MOH   0.0600 
2783 H       10.4040    -6.2272    19.4567 H     464 MOH   0.0600 
2784 H        9.3180    -8.6104    20.5802 H     464 MOH   0.4180 
2785 O       10.4037     1.1918    21.8898 O.3   465 MOH  -0.6830 
2786 C       10.0637     2.2635    21.0312 C.3   465 MOH   0.0850 
2787 H        9.5484     3.0482    21.5865 H     465 MOH   0.0600 
2788 H        9.4094     1.9267    20.2263 H     465 MOH   0.0600 
2789 H       10.9596     2.6964    20.5853 H     465 MOH   0.0600 
2790 H       10.9478     1.5501    22.6006 H     465 MOH   0.4180 
2791 O       18.7822     0.2032     0.0171 O.3   466 MOH  -0.6830 
2792 C       17.3869     0.3827    -0.1428 C.3   466 MOH   0.0850 
2793 H       16.9781    -0.3724    -0.8147 H     466 MOH   0.0600 
2794 H       17.1647     1.3615    -0.5625 H     466 MOH   0.0600 
2795 H       16.8762     0.2984     0.8177 H     466 MOH   0.0600 
2796 H       18.8978    -0.6487     0.4617 H     466 MOH   0.4180 
2797 O       10.9907    18.0424    -2.9431 O.3   467 MOH  -0.6830 
2798 C       11.3799    17.9807    -4.3020 C.3   467 MOH   0.0850 
2799 H       12.1340    18.7360    -4.5269 H     467 MOH   0.0600 
2800 H       10.5191    18.1492    -4.9503 H     467 MOH   0.0600 
2801 H       11.7957    17.0000    -4.5352 H     467 MOH   0.0600 
2802 H       10.3446    17.3408    -2.7975 H     467 MOH   0.4180 
2803 O       14.9329    -2.5859    -1.1371 O.3   468 MOH  -0.6830 
2804 C       15.4853    -3.0344     0.0866 C.3   468 MOH   0.0850 
2805 H       15.9853    -3.9947    -0.0423 H     468 MOH   0.0600 
2806 H       14.7045    -3.1516     0.8390 H     468 MOH   0.0600 
2807 H       16.2143    -2.3189     0.4663 H     468 MOH   0.0600 
2808 H       14.5506    -1.7119    -0.9798 H     468 MOH   0.4180 
2809 O       18.5975    -6.5651    -5.0078 O.3   469 MOH  -0.6830 
2810 C       18.7216    -7.9675    -4.8988 C.3   469 MOH   0.0850 
2811 H       18.2176    -8.3273    -4.0010 H     469 MOH   0.0600 
2812 H       19.7711    -8.2582    -4.8391 H     469 MOH   0.0600 
2813 H       18.2761    -8.4555    -5.7632 H     469 MOH   0.0600 
2814 H       18.9084    -6.1984    -4.1717 H     469 MOH   0.4180 
2815 O       22.3525   -11.3214    -7.2818 O.3   470 MOH  -0.6830 
2816 C       23.3077   -11.3010    -6.2384 C.3   470 MOH   0.0850 
2817 H       24.3171   -11.2104    -6.6414 H     470 MOH   0.0600 
2818 H       23.2566   -12.2192    -5.6518 H     470 MOH   0.0600 
2819 H       23.1329   -10.4596    -5.5667 H     470 MOH   0.0600 
2820 H       22.5773   -12.0305    -7.8716 H     470 MOH   0.4180 
2821 O       19.3484   -11.1283    -4.0778 O.3   471 MOH  -0.6830 
2822 C       20.6312   -11.5380    -3.6372 C.3   471 MOH   0.0850 
2823 H       20.6077   -11.8512    -2.5935 H     471 MOH   0.0600 
2824 H       21.3488   -10.7226    -3.7335 H     471 MOH   0.0600 
2825 H       20.9897   -12.3770    -4.2348 H     471 MOH   0.0600 
2826 H       19.4365   -10.8952    -5.0113 H     471 MOH   0.4180 
2827 O        5.6826   -11.3160   -11.2942 O.3   472 MOH  -0.6830 
2828 C        4.2813   -11.2120   -11.1451 C.3   472 MOH   0.0850 
2829 H        3.8218   -10.8313   -12.0578 H     472 MOH   0.0600 
2830 H        4.0377   -10.5309   -10.3307 H     472 MOH   0.0600 
2831 H        3.8448   -12.1852   -10.9178 H     472 MOH   0.0600 
2832 H        6.0386   -11.7080   -10.4882 H     472 MOH   0.4180 
2833 O       14.9734   -17.0381    -2.8621 O.3   473 MOH  -0.6830 
2834 C       14.7672   -17.1022    -1.4651 C.3   473 MOH   0.0850 
2835 H       14.5028   -16.1224    -1.0658 H     473 MOH   0.0600 
2836 H       15.6676   -17.4493    -0.9576 H     473 MOH   0.0600 
2837 H       13.9587   -17.7944    -1.2378 H     473 MOH   0.0600 
2838 H       15.6017   -16.3247    -3.0380 H     473 MOH   0.4180 
2839 O       13.3946    -9.7745   -16.8252 O.3   474 MOH  -0.6830 
2840 C       12.5724    -8.6567   -17.1048 C.3   474 MOH   0.0850 
2841 H       11.5228    -8.8992   -16.9320 H     474 MOH   0.0600 
2842 H       12.6783    -8.3507   -18.1464 H     474 MOH   0.0600 
2843 H       12.8404    -7.8121   -16.4699 H     474 MOH   0.0600 
2844 H       13.1198   -10.4803   -17.4191 H     474 MOH   0.4180 
2845 O       13.4356     8.2642   -13.1852 O.3   475 MOH  -0.6830 
2846 C       14.0944     8.4745   -11.9501 C.3   475 MOH   0.0850 
2847 H       13.9523     9.5003   -11.6150 H     475 MOH   0.0600 
2848 H       15.1653     8.2911   -12.0422 H     475 MOH   0.0600 
2849 H       13.6932     7.8133   -11.1816 H     475 MOH   0.0600 
2850 H       12.4877     8.4099   -13.0317 H     475 MOH   0.4180 
2851 O       26.1507   -13.1660   -12.5863 O.3   476 MOH  -0.6830 
2852 C       27.4759   -13.4470   -12.1808 C.3   476 MOH   0.0850 
2853 H       27.5163   -13.6354   -11.1074 H     476 MOH   0.0600 
2854 H       28.1351   -12.6081   -12.4034 H     476 MOH   0.0600 
2855 H       27.8571   -14.3268   -12.6997 H     476 MOH   0.0600 
2856 H       26.1629   -12.9044   -13.5089 H     476 MOH   0.4180 
2857 O       12.1653   -14.7818     5.2019 O.3   477 MOH  -0.6830 
2858 C       12.4223   -15.2630     6.5058 C.3   477 MOH   0.0850 
2859 H       11.4904   -15.4389     7.0433 H     477 MOH   0.0600 
2860 H       13.0136   -14.5376     7.0652 H     477 MOH   0.0600 
2861 H       12.9809   -16.1988     6.4689 H     477 MOH   0.0600 
2862 H       13.0199   -14.6364     4.7808 H     477 MOH   0.4180 
2863 O        9.4010     9.9286     2.9919 O.3   478 MOH  -0.6830 
2864 C       10.3215     8.8676     2.8249 C.3   478 MOH   0.0850 
2865 H       10.4583     8.6424     1.7662 H     478 MOH   0.0600 
2866 H        9.9629     7.9671     3.3249 H     478 MOH   0.0600 
2867 H       11.2909     9.1328     3.2493 H     478 MOH   0.0600 
2868 H        9.2892    10.0820     3.9386 H     478 MOH   0.4180 
2869 O       13.7383   -10.8038    -2.9445 O.3   479 MOH  -0.6830 
2870 C       13.6866    -9.4576    -2.5125 C.3   479 MOH   0.0850 
2871 H       13.1394    -9.3726    -1.5738 H     479 MOH   0.0600 
2872 H       13.1864    -8.8379    -3.2562 H     479 MOH   0.0600 
2873 H       14.6933    -9.0653    -2.3630 H     479 MOH   0.0600 
2874 H       14.1327   -10.8121    -3.8262 H     479 MOH   0.4180 
2875 O       11.7923    -8.9971     1.2418 O.3   480 MOH  -0.6830 
2876 C       10.9030    -8.5307     0.2436 C.3   480 MOH   0.0850 
2877 H       10.7239    -9.3038    -0.5037 H     480 MOH   0.0600 
2878 H       11.3150    -7.6584    -0.2626 H     480 MOH   0.0600 
2879 H        9.9442    -8.2503     0.6793 H     480 MOH   0.0600 
2880 H       11.4526    -9.8409     1.5696 H     480 MOH   0.4180 
2881 O       12.5505    -0.3780    -6.8280 O.3   481 MOH  -0.6830 
2882 C       13.4910    -0.8987    -5.9100 C.3   481 MOH   0.0850 
2883 H       13.0247    -1.0758    -4.9401 H     481 MOH   0.0600 
2884 H       14.3202    -0.2051    -5.7698 H     481 MOH   0.0600 
2885 H       13.8954    -1.8430    -6.2746 H     481 MOH   0.0600 
2886 H       11.8646    -1.0451    -6.9696 H     481 MOH   0.4180 
2887 O       16.8733    21.0194     4.4733 O.3   482 MOH  -0.6830 
2888 C       16.2806    20.1546     5.4203 C.3   482 MOH   0.0850 
2889 H       16.9352    19.3072     5.6287 H     482 MOH   0.0600 
2890 H       16.0926    20.6859     6.3536 H     482 MOH   0.0600 
2891 H       15.3290    19.7734     5.0480 H     482 MOH   0.0600 
2892 H       16.2561    21.7375     4.3006 H     482 MOH   0.4180 
2893 O       18.8860    -2.2236     1.2691 O.3   483 MOH  -0.6830 
2894 C       19.6821    -3.3883     1.1853 C.3   483 MOH   0.0850 
2895 H       20.2582    -3.5219     2.1015 H     483 MOH   0.0600 
2896 H       20.3776    -3.3231     0.3481 H     483 MOH   0.0600 
2897 H       19.0576    -4.2709     1.0425 H     483 MOH   0.0600 
2898 H       18.2782    -2.3370     2.0120 H     483 MOH   0.4180 
2899 O       15.0914   -10.0020   -10.2102 O.3   484 MOH  -0.6830 
2900 C       15.0507   -10.0799    -8.7992 C.3   484 MOH   0.0850 
2901 H       15.6517    -9.2848    -8.3570 H     484 MOH   0.0600 
2902 H       15.4433   -11.0379    -8.4559 H     484 MOH   0.0600 
2903 H       14.0279    -9.9777    -8.4351 H     484 MOH   0.0600 
2904 H       16.0154   -10.0632   -10.4838 H     484 MOH   0.4180 
2905 O       16.6119   -11.5744    20.5813 O.3   485 MOH  -0.6830 
2906 C       17.0273   -10.4757    21.3700 C.3   485 MOH   0.0850 
2907 H       16.1685   -10.0228    21.8662 H     485 MOH   0.0600 
2908 H       17.4986    -9.7160    20.7461 H     485 MOH   0.0600 
2909 H       17.7417   -10.7858    22.1334 H     485 MOH   0.0600 
2910 H       15.9534   -11.2461    19.9588 H     485 MOH   0.4180 
2911 O       11.7377    -2.1475     7.1778 O.3   486 MOH  -0.6830 
2912 C       12.1774    -3.3040     6.4971 C.3   486 MOH   0.0850 
2913 H       12.3094    -4.1323     7.1937 H     486 MOH   0.0600 
2914 H       13.1298    -3.1134     6.0014 H     486 MOH   0.0600 
2915 H       11.4551    -3.6059     5.7379 H     486 MOH   0.0600 
2916 H       11.5991    -1.4604     6.5238 H     486 MOH   0.4180 
2917 O       13.6142     5.5554   -13.5612 O.3   487 MOH  -0.6830 
2918 C       13.8244     5.2248   -14.9177 C.3   487 MOH   0.0850 
2919 H       12.9733     5.5419   -15.5206 H     487 MOH   0.0600 
2920 H       13.9531     4.1498   -15.0405 H     487 MOH   0.0600 
2921 H       14.7147     5.7230   -15.3008 H     487 MOH   0.0600 
2922 H       13.5892     6.5189   -13.5078 H     487 MOH   0.4180 
2923 O        8.5088    18.3024     6.3104 O.3   488 MOH  -0.6830 
2924 C        8.4487    18.0070     4.9257 C.3   488 MOH   0.0850 
2925 H        7.6193    17.3316     4.7102 H     488 MOH   0.0600 
2926 H        9.3720    17.5282     4.5970 H     488 MOH   0.0600 
2927 H        8.3076    18.9162     4.3401 H     488 MOH   0.0600 
2928 H        7.6738    18.7025     6.5694 H     488 MOH   0.4180 
2929 O        9.4807   -14.9425    -3.9991 O.3   489 MOH  -0.6830 
2930 C        9.0112   -15.3384    -2.7239 C.3   489 MOH   0.0850 
2931 H        7.9771   -15.0208    -2.5831 H     489 MOH   0.0600 
2932 H        9.6170   -14.8865    -1.9374 H     489 MOH   0.0600 
2933 H        9.0559   -16.4205    -2.6103 H     489 MOH   0.0600 
2934 H        9.4920   -13.9801    -4.0057 H     489 MOH   0.4180 
2935 O       15.4663    -5.5586   -10.4545 O.3   490 MOH  -0.6830 
2936 C       15.0276    -6.8387   -10.8631 C.3   490 MOH   0.0850 
2937 H       14.3119    -6.7545   -11.6802 H     490 MOH   0.0600 
2938 H       14.5366    -7.3501   -10.0348 H     490 MOH   0.0600 
2939 H       15.8628    -7.4510   -11.2036 H     490 MOH   0.0600 
2940 H       14.6933    -5.0944   -10.1040 H     490 MOH   0.4180 
2941 O       11.8147    -5.4227    -1.8730 O.3   491 MOH  -0.6830 
2942 C       12.3757    -4.8374    -0.7175 C.3   491 MOH   0.0850 
2943 H       12.1411    -3.7752    -0.6667 H     491 MOH   0.0600 
2944 H       13.4590    -4.9522    -0.7203 H     491 MOH   0.0600 
2945 H       11.9773    -5.3122     0.1782 H     491 MOH   0.0600 
2946 H       10.8720    -5.5471    -1.7046 H     491 MOH   0.4180 
2947 O       10.0610   -11.1734    -6.1075 O.3   492 MOH  -0.6830 
2948 C       11.4689   -11.0541    -6.2033 C.3   492 MOH   0.0850 
2949 H       11.7571   -10.6246    -7.1629 H     492 MOH   0.0600 
2950 H       11.9457   -12.0306    -6.1093 H     492 MOH   0.0600 
2951 H       11.8565   -10.4091    -5.4140 H     492 MOH   0.0600 
2952 H        9.8568   -11.6313    -5.2831 H     492 MOH   0.4180 
2953 O       12.4771    20.6750     0.2605 O.3   493 MOH  -0.6830 
2954 C       11.8918    19.6845     1.0805 C.3   493 MOH   0.0850 
2955 H       11.8610    18.7235     0.5646 H     493 MOH   0.0600 
2956 H       10.8724    19.9597     1.3532 H     493 MOH   0.0600 
2957 H       12.4724    19.5667     1.9939 H     493 MOH   0.0600 
2958 H       11.9214    20.7632    -0.5216 H     493 MOH   0.4180 
2959 O       11.3973   -13.9589     9.4695 O.3   494 MOH  -0.6830 
2960 C       11.1481   -12.7672     8.7478 C.3   494 MOH   0.0850 
2961 H       12.0794   -12.2466     8.5215 H     494 MOH   0.0600 
2962 H       10.5103   -12.0977     9.3244 H     494 MOH   0.0600 
2963 H       10.6423   -12.9865     7.8077 H     494 MOH   0.0600 
2964 H       10.5466   -14.3892     9.6132 H     494 MOH   0.4180 
2965 O       19.0734   -14.3635    -0.7356 O.3   495 MOH  -0.6830 
2966 C       18.1425   -15.1582    -0.0280 C.3   495 MOH   0.0850 
2967 H       18.6545   -15.8075     0.6833 H     495 MOH   0.0600 
2968 H       17.5734   -15.7829    -0.7165 H     495 MOH   0.0600 
2969 H       17.4406   -14.5303     0.5218 H     495 MOH   0.0600 
2970 H       18.5853   -13.8153    -1.3598 H     495 MOH   0.4180 
2971 O        7.2415    -2.6717     7.1927 O.3   496 MOH  -0.6830 
2972 C        8.5364    -2.1152     7.1057 C.3   496 MOH   0.0850 
2973 H        8.4868    -1.0658     6.8177 H     496 MOH   0.0600 
2974 H        9.1265    -2.6461     6.3584 H     496 MOH   0.0600 
2975 H        9.0513    -2.1882     8.0647 H     496 MOH   0.0600 
2976 H        7.3456    -3.6063     7.4098 H     496 MOH   0.4180 
2977 O       11.7542    17.2045     3.2068 O.3   497 MOH  -0.6830 
2978 C       13.1522    17.0032     3.1658 C.3   497 MOH   0.0850 
2979 H       13.6793    17.9193     3.4313 H     497 MOH   0.0600 
2980 H       13.4618    16.7027     2.1655 H     497 MOH   0.0600 
2981 H       13.4552    16.2262     3.8653 H     497 MOH   0.0600 
2982 H       11.3217    16.4147     2.8635 H     497 MOH   0.4180 
2983 O       15.5784     5.4420    -9.0227 O.3   498 MOH  -0.6830 
2984 C       15.7836     6.8429    -8.9809 C.3   498 MOH   0.0850 
2985 H       16.2588     7.1885    -9.8996 H     498 MOH   0.0600 
2986 H       16.4234     7.1195    -8.1418 H     498 MOH   0.0600 
2987 H       14.8331     7.3662    -8.8730 H     498 MOH   0.0600 
2988 H       14.9511     5.2577    -9.7333 H     498 MOH   0.4180 
2989 O        9.5426    -1.1202    -2.1221 O.3   499 MOH  -0.6830 
2990 C       10.9137    -1.3295    -1.8352 C.3   499 MOH   0.0850 
2991 H       11.2932    -2.2094    -2.3520 H     499 MOH   0.0600 
2992 H       11.0619    -1.4709    -0.7640 H     499 MOH   0.0600 
2993 H       11.5060    -0.4687    -2.1479 H     499 MOH   0.0600 
2994 H        9.2419    -0.4093    -1.5349 H     499 MOH   0.4180 
2995 O        2.6663    -0.2848   -10.5996 O.3   500 MOH  -0.6830 
2996 C        1.6299     0.6385   -10.8769 C.3   500 MOH   0.0850 
2997 H        0.7957     0.4871   -10.1911 H     500 MOH   0.0600 
2998 H        1.2603     0.4986   -11.8934 H     500 MOH   0.0600 
2999 H        1.9796     1.6667   -10.7746 H     500 MOH   0.0600 
3000 H        2.2768    -1.1652   -10.6814 H     500 MOH   0.4180 
3001 O       25.9430   -11.9736   -15.0848 O.3   501 MOH  -0.6830 
3002 C       26.7724   -11.6194   -16.1748 C.3   501 MOH   0.0850 
3003 H       26.4465   -10.6762   -16.6142 H     501 MOH   0.0600 
3004 H       26.7337   -12.3852   -16.9504 H     501 MOH   0.0600 
3005 H       27.8070   -11.5060   -15.8493 H     501 MOH   0.0600 
3006 H       25.0456   -12.0630   -15.4280 H     501 MOH   0.4180 
3007 O        7.9460    -2.1340    -6.7360 O.3   502 MOH  -0.6830 
3008 C        6.5638    -1.9827    -6.9846 C.3   502 MOH   0.0850 
3009 H        6.0116    -2.8497    -6.6219 H     502 MOH   0.0600 
3010 H        6.3816    -1.8852    -8.0550 H     502 MOH   0.0600 
3011 H        6.1761    -1.0935    -6.4865 H     502 MOH   0.0600 
3012 H        8.0782    -2.3308    -5.7986 H     502 MOH   0.4180 
3013 O       15.7648    -9.5249   -15.3380 O.3   503 MOH  -0.6830 
3014 C       16.3213    -8.2541   -15.6165 C.3   503 MOH   0.0850 
3015 H       16.5359    -8.1540   -16.6795 H     503 MOH   0.0600 
3016 H       17.2537    -8.1047   -15.0727 H     503 MOH   0.0600 
3017 H       15.6286    -7.4612   -15.3324 H     503 MOH   0.0600 
3018 H       14.9444    -9.6013   -15.8352 H     503 MOH   0.4180 
3019 O       11.6174    -7.0253    -5.9430 O.3   504 MOH  -0.6830 
3020 C       10.9614    -7.2686    -4.7129 C.3   504 MOH   0.0850 
3021 H       10.1312    -6.5760    -4.5717 H     504 MOH   0.0600 
3022 H       11.6514    -7.1493    -3.8789 H     504 MOH   0.0600 
3023 H       10.5642    -8.2830    -4.6851 H     504 MOH   0.0600 
3024 H       10.9369    -7.0085    -6.6293 H     504 MOH   0.4180 
3025 O       24.7077    -8.0025   -14.6837 O.3   505 MOH  -0.6830 
3026 C       24.3970    -6.9630   -13.7756 C.3   505 MOH   0.0850 
3027 H       23.6705    -6.2751   -14.2098 H     505 MOH   0.0600 
3028 H       25.2959    -6.4011   -13.5180 H     505 MOH   0.0600 
3029 H       23.9782    -7.3735   -12.8551 H     505 MOH   0.0600 
3030 H       25.3452    -8.5813   -14.2382 H     505 MOH   0.4180 
3031 O       17.7599    -9.9453   -11.0676 O.3   506 MOH  -0.6830 
3032 C       17.4488    -9.8747   -12.4477 C.3   506 MOH   0.0850 
3033 H       18.0699   -10.5665   -13.0177 H     506 MOH   0.0600 
3034 H       17.6294    -8.8676   -12.8240 H     506 MOH   0.0600 
3035 H       16.4041   -10.1256   -12.6340 H     506 MOH   0.0600 
3036 H       18.7002    -9.7534   -10.9891 H     506 MOH   0.4180 
3037 O        8.9995     1.0038    -0.5556 O.3   507 MOH  -0.6830 
3038 C        9.4444     2.3030    -0.8843 C.3   507 MOH   0.0850 
3039 H        9.8457     2.8011    -0.0016 H     507 MOH   0.0600 
3040 H        8.6184     2.8972    -1.2754 H     507 MOH   0.0600 
3041 H       10.2302     2.2621    -1.6381 H     507 MOH   0.0600 
3042 H        8.3660     1.0838     0.1646 H     507 MOH   0.4180 
3043 O       16.7359     5.7879    22.1285 O.3   508 MOH  -0.6830 
3044 C       17.1671     6.8104    23.0072 C.3   508 MOH   0.0850 
3045 H       18.2529     6.7996    23.0989 H     508 MOH   0.0600 
3046 H       16.7420     6.6746    24.0010 H     508 MOH   0.0600 
3047 H       16.8645     7.7926    22.6433 H     508 MOH   0.0600 
3048 H       15.7772     5.8347    22.0531 H     508 MOH   0.4180 
3049 O       16.3830    -7.0860    20.6618 O.3   509 MOH  -0.6830 
3050 C       15.6890    -6.0142    21.2723 C.3   509 MOH   0.0850 
3051 H       16.2309    -5.0782    21.1373 H     509 MOH   0.0600 
3052 H       15.5708    -6.1843    22.3427 H     509 MOH   0.0600 
3053 H       14.6979    -5.9008    20.8323 H     509 MOH   0.0600 
3054 H       17.2346    -7.1936    21.1102 H     509 MOH   0.4180 
3055 O       26.3107    -9.7755   -13.4347 O.3   510 MOH  -0.6830 
3056 C       27.6293    -9.5782   -12.9605 C.3   510 MOH   0.0850 
3057 H       28.3536    -9.7465   -13.7585 H     510 MOH   0.0600 
3058 H       27.8546   -10.2655   -12.1446 H     510 MOH   0.0600 
3059 H       27.7524    -8.5598   -12.5901 H     510 MOH   0.0600 
3060 H       26.2823   -10.6290   -13.8837 H     510 MOH   0.4180 
3061 O       22.8820     5.0952   -17.2106 O.3   511 MOH  -0.6830 
3062 C       22.2129     6.2601   -17.6638 C.3   511 MOH   0.0850 
3063 H       21.5790     6.0279   -18.5205 H     511 MOH   0.0600 
3064 H       22.9245     7.0322   -17.9589 H     511 MOH   0.0600 
3065 H       21.5785     6.6628   -16.8729 H     511 MOH   0.0600 
3066 H       22.1906     4.4964   -16.8875 H     511 MOH   0.4180 
3067 O        7.6697     4.9676   -11.6169 O.3   512 MOH  -0.6830 
3068 C        8.2319     3.8634   -12.2964 C.3   512 MOH   0.0850 
3069 H        7.6435     3.6349   -13.1836 H     512 MOH   0.0600 
3070 H        8.2369     2.9787   -11.6599 H     512 MOH   0.0600 
3071 H        9.2564     4.0739   -12.6018 H     512 MOH   0.0600 
3072 H        6.8328     4.6665   -11.2354 H     512 MOH   0.4180 
3073 O        8.7234    -2.7572    -4.2079 O.3   513 MOH  -0.6830 
3074 C        9.8755    -3.5236    -4.5113 C.3   513 MOH   0.0850 
3075 H       10.1303    -4.1770    -3.6767 H     513 MOH   0.0600 
3076 H       10.7237    -2.8666    -4.7058 H     513 MOH   0.0600 
3077 H        9.7231    -4.1421    -5.3957 H     513 MOH   0.0600 
3078 H        8.9224    -2.2463    -3.4135 H     513 MOH   0.4180 
3079 O       -4.9739   -15.0272    -8.5456 O.3   514 MOH  -0.6830 
3080 C       -4.4457   -15.8329    -9.5807 C.3   514 MOH   0.0850 
3081 H       -5.0676   -16.7158    -9.7336 H     514 MOH   0.0600 
3082 H       -3.4362   -16.1637    -9.3332 H     514 MOH   0.0600 
3083 H       -4.4045   -15.2740   -10.5163 H     514 MOH   0.0600 
3084 H       -5.8462   -14.7148    -8.8233 H     514 MOH   0.4180 
3085 O       13.5494     4.9984   -10.8898 O.3   515 MOH  -0.6830 
3086 C       12.8765     3.7642   -10.7092 C.3   515 MOH   0.0850 
3087 H       11.9269     3.7648   -11.2463 H     515 MOH   0.0600 
3088 H       12.6673     3.5799    -9.6555 H     515 MOH   0.0600 
3089 H       13.4790     2.9375   -11.0862 H     515 MOH   0.0600 
3090 H       13.6223     5.1377   -11.8450 H     515 MOH   0.4180 
3091 O        7.0174   -12.2968    -2.1146 O.3   516 MOH  -0.6830 
3092 C        6.7919   -12.7725    -0.8020 C.3   516 MOH   0.0850 
3093 H        5.9889   -13.5110    -0.7986 H     516 MOH   0.0600 
3094 H        6.4987   -11.9516    -0.1462 H     516 MOH   0.0600 
3095 H        7.6916   -13.2355    -0.3962 H     516 MOH   0.0600 
3096 H        6.1957   -11.8722    -2.3968 H     516 MOH   0.4180 
3097 O       28.4975     1.2379     1.1064 O.3   517 MOH  -0.6830 
3098 C       28.5196    -0.0874     1.6072 C.3   517 MOH   0.0850 
3099 H       28.2285    -0.8011     0.8365 H     517 MOH   0.0600 
3100 H       27.8237    -0.1978     2.4386 H     517 MOH   0.0600 
3101 H       29.5177    -0.3493     1.9600 H     517 MOH   0.0600 
3102 H       29.0834     1.2803     0.3440 H     517 MOH   0.4180 
3103 O       25.4413    -6.2183    -7.8410 O.3   518 MOH  -0.6830 
3104 C       25.0167    -7.1197    -8.8476 C.3   518 MOH   0.0850 
3105 H       25.7424    -7.1565    -9.6611 H     518 MOH   0.0600 
3106 H       24.0569    -6.8093    -9.2620 H     518 MOH   0.0600 
3107 H       24.9045    -8.1277    -8.4472 H     518 MOH   0.0600 
3108 H       25.5429    -5.3512    -8.2492 H     518 MOH   0.4180 
3109 O       24.1240     1.7941    -0.7097 O.3   519 MOH  -0.6830 
3110 C       24.7162     1.6486     0.5724 C.3   519 MOH   0.0850 
3111 H       24.2607     2.3343     1.2884 H     519 MOH   0.0600 
3112 H       25.7861     1.8587     0.5366 H     519 MOH   0.0600 
3113 H       24.5825     0.6323     0.9454 H     519 MOH   0.0600 
3114 H       23.1885     1.5638    -0.6189 H     519 MOH   0.4180 
3115 O        3.9753    -9.5932    -0.3496 O.3   520 MOH  -0.6830 
3116 C        2.8520    -9.2768     0.4505 C.3   520 MOH   0.0850 
3117 H        1.9243    -9.4447    -0.0954 H     520 MOH   0.0600 
3118 H        2.8797    -8.2318     0.7580 H     520 MOH   0.0600 
3119 H        2.8370    -9.8935     1.3503 H     520 MOH   0.0600 
3120 H        4.7567    -9.4802     0.2075 H     520 MOH   0.4180 
3121 O       20.4310    -9.1123   -10.9566 O.3   521 MOH  -0.6830 
3122 C       21.7531    -9.4536   -10.5909 C.3   521 MOH   0.0850 
3123 H       22.4579    -8.7700   -11.0644 H     521 MOH   0.0600 
3124 H       21.9930   -10.4701   -10.9030 H     521 MOH   0.0600 
3125 H       21.8914    -9.3833    -9.5114 H     521 MOH   0.0600 
3126 H       20.2896    -8.2030   -10.6585 H     521 MOH   0.4180 
3127 O       16.8895    -4.9402   -15.4420 O.3   522 MOH  -0.6830 
3128 C       17.2140    -3.6857   -16.0063 C.3   522 MOH   0.0850 
3129 H       16.5016    -2.9269   -15.6822 H     522 MOH   0.0600 
3130 H       17.1919    -3.7309   -17.0948 H     522 MOH   0.0600 
3131 H       18.2126    -3.3757   -15.6977 H     522 MOH   0.0600 
3132 H       16.8624    -4.8409   -14.4832 H     522 MOH   0.4180 
3133 O       13.9739     5.7527    21.8487 O.3   523 MOH  -0.6830 
3134 C       13.7317     4.3844    21.5814 C.3   523 MOH   0.0850 
3135 H       13.0473     4.2746    20.7399 H     523 MOH   0.0600 
3136 H       13.2758     3.9013    22.4450 H     523 MOH   0.0600 
3137 H       14.6606     3.8641    21.3454 H     523 MOH   0.0600 
3138 H       13.1164     6.1616    22.0157 H     523 MOH   0.4180 
3139 O        8.1481    -9.3716    -5.1642 O.3   524 MOH  -0.6830 
3140 C        6.8342    -9.7583    -5.5213 C.3   524 MOH   0.0850 
3141 H        6.6350   -10.7807    -5.1975 H     524 MOH   0.0600 
3142 H        6.6982    -9.7049    -6.6022 H     524 MOH   0.0600 
3143 H        6.0989    -9.1008    -5.0554 H     524 MOH   0.0600 
3144 H        8.7645    -9.9546    -5.6166 H     524 MOH   0.4180 
3145 O       19.8705    -3.1266    -3.0384 O.3   525 MOH  -0.6830 
3146 C       18.7520    -2.4093    -2.5453 C.3   525 MOH   0.0850 
3147 H       18.1114    -3.0527    -1.9404 H     525 MOH   0.0600 
3148 H       18.1566    -2.0048    -3.3646 H     525 MOH   0.0600 
3149 H       19.0758    -1.5775    -1.9232 H     525 MOH   0.0600 
3150 H       20.3643    -2.5427    -3.6302 H     525 MOH   0.4180 
3151 O        6.7093   -12.5890    -9.1006 O.3   526 MOH  -0.6830 
3152 C        7.8701   -12.4177    -8.3109 C.3   526 MOH   0.0850 
3153 H        7.8246   -13.0374    -7.4150 H     526 MOH   0.0600 
3154 H        7.9743   -11.3770    -8.0032 H     526 MOH   0.0600 
3155 H        8.7617   -12.6982    -8.8723 H     526 MOH   0.0600 
3156 H        6.6941   -13.5024    -9.4182 H     526 MOH   0.4180 
3157 O       18.1299     5.3197    -2.8197 O.3   527 MOH  -0.6830 
3158 C       18.9849     6.3971    -3.1522 C.3   527 MOH   0.0850 
3159 H       19.4616     6.2314    -4.1187 H     527 MOH   0.0600 
3160 H       19.7666     6.5156    -2.4004 H     527 MOH   0.0600 
3161 H       18.4206     7.3283    -3.2077 H     527 MOH   0.0600 
3162 H       17.7091     5.5206    -1.9789 H     527 MOH   0.4180 
3163 O        4.6716   -10.9589    -2.6110 O.3   528 MOH  -0.6830 
3164 C        3.7282   -10.7556    -3.6421 C.3   528 MOH   0.0850 
3165 H        3.9655   -11.3683    -4.5106 H     528 MOH   0.0600 
3166 H        3.7180    -9.7109    -3.9479 H     528 MOH   0.0600 
3167 H        2.7280   -11.0139    -3.2972 H     528 MOH   0.0600 
3168 H        4.3787   -10.4528    -1.8418 H     528 MOH   0.4180 
3169 O       16.7379   -15.0363    -3.3985 O.3   529 MOH  -0.6830 
3170 C       16.5362   -14.8912    -4.7917 C.3   529 MOH   0.0850 
3171 H       15.7850   -14.1256    -4.9909 H     529 MOH   0.0600 
3172 H       16.1954   -15.8286    -5.2333 H     529 MOH   0.0600 
3173 H       17.4642   -14.5967    -5.2831 H     529 MOH   0.0600 
3174 H       17.0937   -14.2012    -3.0706 H     529 MOH   0.4180 
3175 O       14.0517   -14.6730     9.6211 O.3   530 MOH  -0.6830 
3176 C       14.1227   -15.5909    10.6945 C.3   530 MOH   0.0850 
3177 H       13.8432   -15.1055    11.6300 H     530 MOH   0.0600 
3178 H       15.1352   -15.9823    10.8020 H     530 MOH   0.0600 
3179 H       13.4456   -16.4289    10.5254 H     530 MOH   0.0600 
3180 H       13.1380   -14.3673     9.5538 H     530 MOH   0.4180 
3181 O       16.0120    18.8296    -5.9394 O.3   531 MOH  -0.6830 
3182 C       17.1835    18.3883    -5.2778 C.3   531 MOH   0.0850 
3183 H       17.8271    19.2348    -5.0356 H     531 MOH   0.0600 
3184 H       17.7463    17.6947    -5.9030 H     531 MOH   0.0600 
3185 H       16.9284    17.8811    -4.3469 H     531 MOH   0.0600 
3186 H       15.5623    19.4415    -5.3414 H     531 MOH   0.4180 
3187 O       15.1624    20.0065     0.3101 O.3   532 MOH  -0.6830 
3188 C       15.8286    20.3673     1.5021 C.3   532 MOH   0.0850 
3189 H       16.8819    20.0886     1.4574 H     532 MOH   0.0600 
3190 H       15.3797    19.8625     2.3577 H     532 MOH   0.0600 
3191 H       15.7686    21.4434     1.6656 H     532 MOH   0.0600 
3192 H       14.2370    20.2650     0.3821 H     532 MOH   0.4180 
3193 O       17.7954   -12.6917    -2.4923 O.3   533 MOH  -0.6830 
3194 C       16.9387   -11.9200    -1.6723 C.3   533 MOH   0.0850 
3195 H       16.2848   -12.5692    -1.0885 H     533 MOH   0.0600 
3196 H       16.3161   -11.2623    -2.2773 H     533 MOH   0.0600 
3197 H       17.5150   -11.3010    -0.9839 H     533 MOH   0.0600 
3198 H       18.3204   -12.0828    -3.0346 H     533 MOH   0.4180 
3199 O       21.6672    -5.9801     1.5086 O.3   534 MOH  -0.6830 
3200 C       22.1032    -7.2861     1.8317 C.3   534 MOH   0.0850 
3201 H       21.8595    -7.9793     1.0273 H     534 MOH   0.0600 
3202 H       21.6251    -7.6406     2.7452 H     534 MOH   0.0600 
3203 H       23.1823    -7.3008     1.9840 H     534 MOH   0.0600 
3204 H       21.8950    -5.4013     2.2453 H     534 MOH   0.4180 
3205 O       22.4896    -9.4596   -15.3557 O.3   535 MOH  -0.6830 
3206 C       21.5891    -9.4435   -14.2617 C.3   535 MOH   0.0850 
3207 H       20.6902   -10.0193   -14.4863 H     535 MOH   0.0600 
3208 H       21.2887    -8.4226   -14.0212 H     535 MOH   0.0600 
3209 H       22.0613    -9.8767   -13.3800 H     535 MOH   0.0600 
3210 H       23.2394    -8.8944   -15.1222 H     535 MOH   0.4180 
3211 O       15.9469    17.3337    -8.2500 O.3   536 MOH  -0.6830 
3212 C       15.3783    18.1338    -9.2681 C.3   536 MOH   0.0850 
3213 H       15.9795    19.0297    -9.4279 H     536 MOH   0.0600 
3214 H       14.3701    18.4434    -8.9897 H     536 MOH   0.0600 
3215 H       15.3216    17.5829   -10.2078 H     536 MOH   0.0600 
3216 H       15.9777    17.8686    -7.4435 H     536 MOH   0.4180 
3217 O       18.8845    -7.4971    21.6732 O.3   537 MOH  -0.6830 
3218 C       19.2096    -6.2928    22.3409 C.3   537 MOH   0.0850 
3219 H       18.5733    -5.4763    22.0012 H     537 MOH   0.0600 
3220 H       20.2469    -6.0175    22.1479 H     537 MOH   0.0600 
3221 H       19.0785    -6.4056    23.4180 H     537 MOH   0.0600 
3222 H       19.5402    -8.1555    21.9413 H     537 MOH   0.4180 
3223 O       23.3167   -11.9993   -15.9484 O.3   538 MOH  -0.6830 
3224 C       22.7152   -12.9342   -15.0719 C.3   538 MOH   0.0850 
3225 H       23.0758   -13.9429   -15.2780 H     538 MOH   0.0600 
3226 H       21.6306   -12.9254   -15.1890 H     538 MOH   0.0600 
3227 H       22.9498   -12.6923   -14.0340 H     538 MOH   0.0600 
3228 H       22.9603   -11.1263   -15.7364 H     538 MOH   0.4180 
3229 O       20.8018    -9.2697    22.4675 O.3   539 MOH  -0.6830 
3230 C       21.0090   -10.3684    21.5998 C.3   539 MOH   0.0850 
3231 H       20.9447   -11.3095    22.1476 H     539 MOH   0.0600 
3232 H       21.9937   -10.3097    21.1353 H     539 MOH   0.0600 
3233 H       20.2590   -10.3804    20.8080 H     539 MOH   0.0600 
3234 H       21.4277    -9.3408    23.1959 H     539 MOH   0.4180 
3235 O       24.3100     6.5070   -15.2226 O.3   540 MOH  -0.6830 
3236 C       25.6790     6.1506   -15.1680 C.3   540 MOH   0.0850 
3237 H       26.2310     6.8369   -14.5240 H     540 MOH   0.0600 
3238 H       26.1252     6.1848   -16.1626 H     540 MOH   0.0600 
3239 H       25.7969     5.1410   -14.7732 H     540 MOH   0.0600 
3240 H       23.8588     5.8887   -15.8050 H     540 MOH   0.4180 
3241 O       21.4878     0.8031    -0.6441 O.3   541 MOH  -0.6830 
3242 C       21.7404    -0.4060    -1.3365 C.3   541 MOH   0.0850 
3243 H       22.7894    -0.4925    -1.6188 H     541 MOH   0.0600 
3244 H       21.1407    -0.4499    -2.2450 H     541 MOH   0.0600 
3245 H       21.4803    -1.2642    -0.7152 H     541 MOH   0.0600 
3246 H       20.5662     0.7726    -0.3658 H     541 MOH   0.4180 
3247 O       16.7718    -4.5801   -12.7062 O.3   542 MOH  -0.6830 
3248 C       17.0968    -3.2394   -12.3958 C.3   542 MOH   0.0850 
3249 H       17.6943    -2.7895   -13.1886 H     542 MOH   0.0600 
3250 H       17.6664    -3.1915   -11.4680 H     542 MOH   0.0600 
3251 H       16.1904    -2.6469   -12.2679 H     542 MOH   0.0600 
3252 H       16.3192    -4.9540   -11.9412 H     542 MOH   0.4180 
3253 O       13.2454    -6.7454     1.9717 O.3   543 MOH  -0.6830 
3254 C       14.5641    -6.8783     1.4801 C.3   543 MOH   0.0850 
3255 H       15.0681    -7.7122     1.9687 H     543 MOH   0.0600 
3256 H       15.1393    -5.9719     1.6704 H     543 MOH   0.0600 
3257 H       14.5575    -7.0612     0.4051 H     543 MOH   0.0600 
3258 H       12.7509    -7.5408     1.7346 H     543 MOH   0.4180 
3259 O       19.9402    -6.6421    -9.9025 O.3   544 MOH  -0.6830 
3260 C       18.5878    -6.5228   -10.3051 C.3   544 MOH   0.0850 
3261 H       18.4691    -6.7905   -11.3556 H     544 MOH   0.0600 
3262 H       18.2329    -5.5007   -10.1741 H     544 MOH   0.0600 
3263 H       17.9513    -7.1790    -9.7102 H     544 MOH   0.0600 
3264 H       19.9991    -6.3358    -8.9884 H     544 MOH   0.4180 
3265 O       24.2720     1.6637    -4.6860 O.3   545 MOH  -0.6830 
3266 C       22.9537     1.8638    -4.2138 C.3   545 MOH   0.0850 
3267 H       22.9609     2.4446    -3.2905 H     545 MOH   0.0600 
3268 H       22.4710     0.9077    -4.0105 H     545 MOH   0.0600 
3269 H       22.3577     2.3981    -4.9543 H     545 MOH   0.0600 
3270 H       24.7609     1.1990    -4.0012 H     545 MOH   0.4180 
3271 O       10.1125    -9.4822   -11.5554 O.3   546 MOH  -0.6830 
3272 C        9.7307   -10.8271   -11.3383 C.3   546 MOH   0.0850 
3273 H       10.1994   -11.2143   -10.4328 H     546 MOH   0.0600 
3274 H       10.0386   -11.4523   -12.1771 H     546 MOH   0.0600 
3275 H        8.6485   -10.9090   -11.2273 H     546 MOH   0.0600 
3276 H       11.0757    -9.4547   -11.6416 H     546 MOH   0.4180 
3277 O       20.5113     0.8323    -9.6542 O.3   547 MOH  -0.6830 
3278 C       19.7211     1.5706    -8.7399 C.3   547 MOH   0.0850 
3279 H       18.6627     1.4905    -8.9932 H     547 MOH   0.0600 
3280 H       19.9960     2.6256    -8.7472 H     547 MOH   0.0600 
3281 H       19.8544     1.1875    -7.7279 H     547 MOH   0.0600 
3282 H       20.2284    -0.0879    -9.5835 H     547 MOH   0.4180 
3283 O       15.0260   -16.9706     3.9651 O.3   548 MOH  -0.6830 
3284 C       13.7911   -17.5546     3.5882 C.3   548 MOH   0.0850 
3285 H       13.5061   -17.2417     2.5830 H     548 MOH   0.0600 
3286 H       12.9959   -17.2653     4.2747 H     548 MOH   0.0600 
3287 H       13.8598   -18.6422     3.6006 H     548 MOH   0.0600 
3288 H       14.9145   -16.0141     3.9741 H     548 MOH   0.4180 
3289 O       12.5812    -4.6631    12.7350 O.3   549 MOH  -0.6830 
3290 C       12.0438    -4.6874    14.0453 C.3   549 MOH   0.0850 
3291 H       12.6856    -4.1442    14.7394 H     549 MOH   0.0600 
3292 H       11.9431    -5.7140    14.3996 H     549 MOH   0.0600 
3293 H       11.0545    -4.2276    14.0624 H     549 MOH   0.0600 
3294 H       11.9303    -5.0891    12.1565 H     549 MOH   0.4180 
3295 O       12.6528    20.4224     6.0693 O.3   550 MOH  -0.6830 
3296 C       11.6396    19.7589     5.3366 C.3   550 MOH   0.0850 
3297 H       11.5512    18.7161     5.6439 H     550 MOH   0.0600 
3298 H       11.8634    19.7797     4.2709 H     550 MOH   0.0600 
3299 H       10.6733    20.2401     5.4897 H     550 MOH   0.0600 
3300 H       12.4005    20.4262     6.9816 H     550 MOH   0.4180 
3301 O       14.6325   -14.2324     4.1017 O.3   551 MOH  -0.6830 
3302 C       14.3519   -13.6200     2.8569 C.3   551 MOH   0.0850 
3303 H       13.8487   -14.3175     2.1859 H     551 MOH   0.0600 
3304 H       15.2717   -13.2838     2.3765 H     551 MOH   0.0600 
3305 H       13.7052   -12.7540     3.0013 H     551 MOH   0.0600 
3306 H       15.1428   -13.5976     4.6286 H     551 MOH   0.4180 
3307 O       19.9991    -5.8214    -7.2740 O.3   552 MOH  -0.6830 
3308 C       21.2830    -5.4798    -6.7861 C.3   552 MOH   0.0850 
3309 H       21.9367    -5.1638    -7.6002 H     552 MOH   0.0600 
3310 H       21.7434    -6.3358    -6.2913 H     552 MOH   0.0600 
3311 H       21.2117    -4.6651    -6.0636 H     552 MOH   0.0600 
3312 H       19.4662    -6.0932    -6.5161 H     552 MOH   0.4180 
3313 O       15.9128   -12.2963     5.5089 O.3   553 MOH  -0.6830 
3314 C       16.1457   -11.9920     6.8711 C.3   553 MOH   0.0850 
3315 H       17.0048   -11.3278     6.9720 H     553 MOH   0.0600 
3316 H       15.2789   -11.4960     7.3084 H     553 MOH   0.0600 
3317 H       16.3447   -12.8944     7.4460 H     553 MOH   0.0600 
3318 H       15.7656   -11.4583     5.0569 H     553 MOH   0.4180 
3319 O       21.7602   -13.8757    -0.8196 O.3   554 MOH  -0.6830 
3320 C       22.2673   -14.1020     0.4813 C.3   554 MOH   0.0850 
3321 H       23.3324   -13.8737     0.5292 H     554 MOH   0.0600 
3322 H       22.1235   -15.1442     0.7680 H     554 MOH   0.0600 
3323 H       21.7470   -13.4778     1.2087 H     554 MOH   0.0600 
3324 H       20.8146   -14.0775    -0.7857 H     554 MOH   0.4180 
3325 O        8.8636    -9.1465     4.7966 O.3   555 MOH  -0.6830 
3326 C       10.1469    -8.7717     4.3303 C.3   555 MOH   0.0850 
3327 H       10.7332    -8.3179     5.1303 H     555 MOH   0.0600 
3328 H       10.0692    -8.0533     3.5134 H     555 MOH   0.0600 
3329 H       10.6885    -9.6418     3.9640 H     555 MOH   0.0600 
3330 H        8.4099    -8.3439     5.0827 H     555 MOH   0.4180 
3331 O       17.1118    -0.2025    -6.9003 O.3   556 MOH  -0.6830 
3332 C       17.4398     0.7758    -5.9385 C.3   556 MOH   0.0850 
3333 H       18.3502     0.4920    -5.4106 H     556 MOH   0.0600 
3334 H       16.6366     0.8755    -5.2077 H     556 MOH   0.0600 
3335 H       17.6012     1.7455    -6.4096 H     556 MOH   0.0600 
3336 H       16.9540    -1.0324    -6.4258 H     556 MOH   0.4180 
3337 O        9.1014    19.2694    20.5006 O.3   557 MOH  -0.6830 
3338 C        9.6802    20.1627    19.5680 C.3   557 MOH   0.0850 
3339 H       10.4056    19.6556    18.9321 H     557 MOH   0.0600 
3340 H       10.1895    20.9769    20.0848 H     557 MOH   0.0600 
3341 H        8.9079    20.5971    18.9338 H     557 MOH   0.0600 
3342 H        8.4727    19.7789    21.0238 H     557 MOH   0.4180 
3343 O       15.1596     1.5487    -2.6669 O.3   558 MOH  -0.6830 
3344 C       14.1656     2.2305    -3.4120 C.3   558 MOH   0.0850 
3345 H       14.1821     3.2997    -3.1959 H     558 MOH   0.0600 
3346 H       13.1710     1.8488    -3.1777 H     558 MOH   0.0600 
3347 H       14.3348     2.0985    -4.4796 H     558 MOH   0.0600 
3348 H       16.0194     1.8968    -2.9360 H     558 MOH   0.4180 
3349 O       22.0630   -14.2747    16.5560 O.3   559 MOH  -0.6830 
3350 C       22.3735   -13.6369    17.7797 C.3   559 MOH   0.0850 
3351 H       23.4209   -13.3333    17.7967 H     559 MOH   0.0600 
3352 H       22.2008   -14.3127    18.6184 H     559 MOH   0.0600 
3353 H       21.7557   -12.7495    17.9205 H     559 MOH   0.0600 
3354 H       22.6343   -15.0459    16.4746 H     559 MOH   0.4180 
3355 O       17.3529    -8.5526     0.4370 O.3   560 MOH  -0.6830 
3356 C       18.2440    -7.9155     1.3359 C.3   560 MOH   0.0850 
3357 H       18.4457    -8.5516     2.1986 H     560 MOH   0.0600 
3358 H       17.8242    -6.9742     1.6924 H     560 MOH   0.0600 
3359 H       19.1938    -7.6987     0.8456 H     560 MOH   0.0600 
3360 H       17.2431    -7.9660    -0.3252 H     560 MOH   0.4180 
3361 O       17.0630    -2.3644     3.2996 O.3   561 MOH  -0.6830 
3362 C       16.1526    -3.2287     3.9543 C.3   561 MOH   0.0850 
3363 H       16.3010    -4.2603     3.6341 H     561 MOH   0.0600 
3364 H       15.1232    -2.9477     3.7275 H     561 MOH   0.0600 
3365 H       16.2871    -3.1861     5.0359 H     561 MOH   0.0600 
3366 H       16.8435    -1.4573     3.5533 H     561 MOH   0.4180 
3367 O       14.8366   -10.6014    -5.4430 O.3   562 MOH  -0.6830 
3368 C       16.2338   -10.7167    -5.2649 C.3   562 MOH   0.0850 
3369 H       16.5659   -10.0811    -4.4439 H     562 MOH   0.0600 
3370 H       16.7604   -10.4137    -6.1683 H     562 MOH   0.0600 
3371 H       16.5124   -11.7454    -5.0366 H     562 MOH   0.0600 
3372 H       14.6301    -9.6705    -5.6126 H     562 MOH   0.4180 
3373 O        5.9375   -12.9817    12.2932 O.3   563 MOH  -0.6830 
3374 C        4.8517   -12.2128    12.7771 C.3   563 MOH   0.0850 
3375 H        4.1949   -11.9177    11.9579 H     563 MOH   0.0600 
3376 H        5.2093   -11.3079    13.2701 H     563 MOH   0.0600 
3377 H        4.2650   -12.7835    13.4979 H     563 MOH   0.0600 
3378 H        6.4757   -13.2453    13.0515 H     563 MOH   0.4180 
3379 O       14.4053   -17.8525    19.2449 O.3   564 MOH  -0.6830 
3380 C       13.8508   -18.4295    20.4124 C.3   564 MOH   0.0850 
3381 H       12.9496   -17.8935    20.7126 H     564 MOH   0.0600 
3382 H       14.5656   -18.3854    21.2350 H     564 MOH   0.0600 
3383 H       13.5875   -19.4746    20.2413 H     564 MOH   0.0600 
3384 H       14.6029   -16.9253    19.4372 H     564 MOH   0.4180 
3385 O       13.7765    -9.2173     8.4117 O.3   565 MOH  -0.6830 
3386 C       13.9553    -7.8178     8.3098 C.3   565 MOH   0.0850 
3387 H       13.0405    -7.3382     7.9602 H     565 MOH   0.0600 
3388 H       14.7514    -7.5960     7.5997 H     565 MOH   0.0600 
3389 H       14.2278    -7.3860     9.2734 H     565 MOH   0.0600 
3390 H       13.5200    -9.5357     7.5364 H     565 MOH   0.4180 
3391 O       14.0762     9.9828    10.6322 O.3   566 MOH  -0.6830 
3392 C       13.8460    10.3706    11.9760 C.3   566 MOH   0.0850 
3393 H       13.6037    11.4326    12.0292 H     566 MOH   0.0600 
3394 H       14.7265    10.1868    12.5925 H     566 MOH   0.0600 
3395 H       13.0089     9.8127    12.3984 H     566 MOH   0.0600 
3396 H       13.2585    10.1755    10.1444 H     566 MOH   0.4180 
3397 O       24.1339   -14.3186     7.6463 O.3   567 MOH  -0.6830 
3398 C       22.9244   -13.7540     8.1163 C.3   567 MOH   0.0850 
3399 H       23.1205   -12.9603     8.8381 H     567 MOH   0.0600 
3400 H       22.3033   -14.5087     8.6004 H     567 MOH   0.0600 
3401 H       22.3585   -13.3312     7.2857 H     567 MOH   0.0600 
3402 H       23.9085   -15.0088     7.0338 H     567 MOH   0.4180 
3403 O       14.5946   -10.8158    14.1764 O.3   568 MOH  -0.6830 
3404 C       14.7426   -10.8618    15.5836 C.3   568 MOH   0.0850 
3405 H       15.6804   -10.3951    15.8880 H     568 MOH   0.0600 
3406 H       14.7472   -11.8943    15.9355 H     568 MOH   0.0600 
3407 H       13.9238   -10.3371    16.0773 H     568 MOH   0.0600 
3408 H       15.3412   -11.2894    13.7855 H     568 MOH   0.4180 
3409 O       15.4295    -9.9863     4.1289 O.3   569 MOH  -0.6830 
3410 C       16.4381    -9.1035     4.5918 C.3   569 MOH   0.0850 
3411 H       16.4350    -8.1758     4.0194 H     569 MOH   0.0600 
3412 H       17.4248    -9.5575     4.4914 H     569 MOH   0.0600 
3413 H       16.2844    -8.8549     5.6434 H     569 MOH   0.0600 
3414 H       15.5805   -10.1514     3.1865 H     569 MOH   0.4180 
3415 O        9.8881   -16.8241    18.0660 O.3   570 MOH  -0.6830 
3416 C       11.2859   -16.6133    18.1293 C.3   570 MOH   0.0850 
3417 H       11.8006   -17.5518    18.3378 H     570 MOH   0.0600 
3418 H       11.5395   -15.8996    18.9140 H     570 MOH   0.0600 
3419 H       11.6584   -16.2284    17.1796 H     570 MOH   0.0600 
3420 H        9.7347   -17.5181    17.4112 H     570 MOH   0.4180 
3421 O       14.3517    10.3703    -0.0476 O.3   571 MOH  -0.6830 
3422 C       14.8542     9.2163    -0.6915 C.3   571 MOH   0.0850 
3423 H       15.6088     9.4911    -1.4287 H     571 MOH   0.0600 
3424 H       14.0545     8.6857    -1.2081 H     571 MOH   0.0600 
3425 H       15.3050     8.5322     0.0265 H     571 MOH   0.0600 
3426 H       13.9610    10.9294    -0.7309 H     571 MOH   0.4180 
3427 O       13.5687     7.2502    10.9600 O.3   572 MOH  -0.6830 
3428 C       13.2655     6.6716     9.7040 C.3   572 MOH   0.0850 
3429 H       12.5141     7.2629     9.1798 H     572 MOH   0.0600 
3430 H       12.8809     5.6592     9.8269 H     572 MOH   0.0600 
3431 H       14.1537     6.6246     9.0749 H     572 MOH   0.0600 
3432 H       13.8370     8.1598    10.7967 H     572 MOH   0.4180 
3433 O        8.3507   -16.6989    20.3690 O.3   573 MOH  -0.6830 
3434 C        8.0880   -15.3429    20.6737 C.3   573 MOH   0.0850 
3435 H        7.5602   -14.8588    19.8513 H     573 MOH   0.0600 
3436 H        9.0203   -14.8032    20.8439 H     573 MOH   0.0600 
3437 H        7.4734   -15.2562    21.5698 H     573 MOH   0.0600 
3438 H        8.8712   -16.7152    19.5558 H     573 MOH   0.4180 
3439 O       14.8708    -6.3374    12.4240 O.3   574 MOH  -0.6830 
3440 C       14.2330    -7.5811    12.6367 C.3   574 MOH   0.0850 
3441 H       13.7397    -7.9186    11.7261 H     574 MOH   0.0600 
3442 H       13.4846    -7.5044    13.4259 H     574 MOH   0.0600 
3443 H       14.9524    -8.3426    12.9320 H     574 MOH   0.0600 
3444 H       14.1920    -5.6607    12.4213 H     574 MOH   0.4180 
3445 O       19.7654   -12.4329     3.0967 O.3   575 MOH  -0.6830 
3446 C       18.3821   -12.5379     2.8175 C.3   575 MOH   0.0850 
3447 H       18.1702   -12.2653     1.7836 H     575 MOH   0.0600 
3448 H       17.8108   -11.8786     3.4709 H     575 MOH   0.0600 
3449 H       18.0352   -13.5589     2.9799 H     575 MOH   0.0600 
3450 H       19.9005   -12.7617     3.9961 H     575 MOH   0.4180 
3451 O        9.0271   -10.5561     7.1609 O.3   576 MOH  -0.6830 
3452 C        9.5272    -9.5503     8.0194 C.3   576 MOH   0.0850 
3453 H        9.5436    -9.8956     9.0531 H     576 MOH   0.0600 
3454 H        8.8999    -8.6597     7.9655 H     576 MOH   0.0600 
3455 H       10.5429    -9.2732     7.7326 H     576 MOH   0.0600 
3456 H        8.9719   -10.1777     6.2765 H     576 MOH   0.4180 
3457 O       26.6807    10.2793   -16.7396 O.3   577 MOH  -0.6830 
3458 C       27.7162     9.5379   -16.1224 C.3   577 MOH   0.0850 
3459 H       28.6925     9.9504   -16.3782 H     577 MOH   0.0600 
3460 H       27.6876     8.4952   -16.4404 H     577 MOH   0.0600 
3461 H       27.6083     9.5586   -15.0384 H     577 MOH   0.0600 
3462 H       25.8465     9.8367   -16.5291 H     577 MOH   0.4180 
3463 O       14.4043     6.4884    15.4376 O.3   578 MOH  -0.6830 
3464 C       15.1839     7.6689    15.4588 C.3   578 MOH   0.0850 
3465 H       15.7997     7.7398    14.5612 H     578 MOH   0.0600 
3466 H       15.8417     7.6833    16.3283 H     578 MOH   0.0600 
3467 H       14.5459     8.5523    15.4985 H     578 MOH   0.0600 
3468 H       13.7806     6.5695    14.7081 H     578 MOH   0.4180 
3469 O        1.8419    -1.7738    12.4841 O.3   579 MOH  -0.6830 
3470 C        1.6154    -1.5061    11.1131 C.3   579 MOH   0.0850 
3471 H        0.8199    -0.7697    10.9935 H     579 MOH   0.0600 
3472 H        1.3174    -2.4185    10.5958 H     579 MOH   0.0600 
3473 H        2.5121    -1.1184    10.6303 H     579 MOH   0.0600 
3474 H        1.0235    -2.1531    12.8331 H     579 MOH   0.4180 
3475 O       22.3192    -4.4765     3.7234 O.3   580 MOH  -0.6830 
3476 C       22.7721    -3.2866     4.3425 C.3   580 MOH   0.0850 
3477 H       22.6497    -2.4323     3.6758 H     580 MOH   0.0600 
3478 H       23.8272    -3.3689     4.6073 H     580 MOH   0.0600 
3479 H       22.2080    -3.0892     5.2550 H     580 MOH   0.0600 
3480 H       22.4290    -5.1958     4.3629 H     580 MOH   0.4180 
3481 O       20.1047     5.3776     3.9424 O.3   581 MOH  -0.6830 
3482 C       20.4617     6.7209     4.1991 C.3   581 MOH   0.0850 
3483 H       21.3094     6.7754     4.8815 H     581 MOH   0.0600 
3484 H       19.6303     7.2623     4.6503 H     581 MOH   0.0600 
3485 H       20.7323     7.2251     3.2708 H     581 MOH   0.0600 
3486 H       19.3621     5.3844     3.3361 H     581 MOH   0.4180 
3487 O       16.5780     0.2813     3.9255 O.3   582 MOH  -0.6830 
3488 C       16.5451     0.3653     5.3371 C.3   582 MOH   0.0850 
3489 H       16.3149    -0.6045     5.7784 H     582 MOH   0.0600 
3490 H       15.7902     1.0766     5.6676 H     582 MOH   0.0600 
3491 H       17.5095     0.6956     5.7196 H     582 MOH   0.0600 
3492 H       16.8270     1.1489     3.5858 H     582 MOH   0.4180 
3493 O       17.0823    -6.8552    -1.6748 O.3   583 MOH  -0.6830 
3494 C       16.0347    -6.2387    -2.3973 C.3   583 MOH   0.0850 
3495 H       15.0610    -6.5697    -2.0359 H     583 MOH   0.0600 
3496 H       16.1069    -6.4799    -3.4584 H     583 MOH   0.0600 
3497 H       16.0900    -5.1550    -2.2907 H     583 MOH   0.0600 
3498 H       17.9095    -6.4739    -1.9934 H     583 MOH   0.4180 
3499 O       24.9094    -9.4536     7.1565 O.3   584 MOH  -0.6830 
3500 C       24.7927   -10.8620     7.1167 C.3   584 MOH   0.0850 
3501 H       23.7754   -11.1539     6.8545 H     584 MOH   0.0600 
3502 H       25.0351   -11.2945     8.0882 H     584 MOH   0.0600 
3503 H       25.4735   -11.2852     6.3775 H     584 MOH   0.0600 
3504 H       24.3381    -9.1267     7.8571 H     584 MOH   0.4180 
3505 O        7.5776    -2.5277    19.6352 O.3   585 MOH  -0.6830 
3506 C        7.0348    -1.5105    18.8199 C.3   585 MOH   0.0850 
3507 H        6.2424    -0.9806    19.3493 H     585 MOH   0.0600 
3508 H        6.6151    -1.9324    17.9067 H     585 MOH   0.0600 
3509 H        7.8075    -0.7911    18.5469 H     585 MOH   0.0600 
3510 H        7.9964    -2.0969    20.3873 H     585 MOH   0.4180 
3511 O       16.4091    -9.6835     9.2283 O.3   586 MOH  -0.6830 
3512 C       16.6483    -9.1619    10.5201 C.3   586 MOH   0.0850 
3513 H       16.4584    -8.0883    10.5476 H     586 MOH   0.0600 
3514 H       17.6799    -9.3388    10.8223 H     586 MOH   0.0600 
3515 H       16.0042    -9.6430    11.2539 H     586 MOH   0.0600 
3516 H       15.4934    -9.5056     8.9911 H     586 MOH   0.4180 
3517 O       14.8161    -3.2404    -3.8155 O.3   587 MOH  -0.6830 
3518 C       13.6608    -4.0120    -4.0783 C.3   587 MOH   0.0850 
3519 H       13.7573    -5.0140    -3.6609 H     587 MOH   0.0600 
3520 H       13.4897    -4.1049    -5.1505 H     587 MOH   0.0600 
3521 H       12.7865    -3.5416    -3.6317 H     587 MOH   0.0600 
3522 H       14.8478    -3.0634    -2.8654 H     587 MOH   0.4180 
3523 O        1.6290    -4.5924     0.8147 O.3   588 MOH  -0.6830 
3524 C        0.8104    -5.5380     1.4778 C.3   588 MOH   0.0850 
3525 H        0.4215    -6.2809     0.7817 H     588 MOH   0.0600 
3526 H       -0.0354    -5.0369     1.9501 H     588 MOH   0.0600 
3527 H        1.3751    -6.0557     2.2522 H     588 MOH   0.0600 
3528 H        1.9744    -3.9956     1.4903 H     588 MOH   0.4180 
3529 O       23.6123    -8.3783     9.4265 O.3   589 MOH  -0.6830 
3530 C       23.5150    -7.0064     9.0822 C.3   589 MOH   0.0850 
3531 H       22.7887    -6.8535     8.2826 H     589 MOH   0.0600 
3532 H       24.4815    -6.6284     8.7451 H     589 MOH   0.0600 
3533 H       23.2053    -6.4167     9.9461 H     589 MOH   0.0600 
3534 H       24.2892    -8.4442    10.1167 H     589 MOH   0.4180 
3535 O        4.8847    -2.6433     8.5962 O.3   590 MOH  -0.6830 
3536 C        5.0438    -2.7566     9.9948 C.3   590 MOH   0.0850 
3537 H        5.4305    -1.8249    10.4070 H     590 MOH   0.0600 
3538 H        5.7475    -3.5544    10.2324 H     590 MOH   0.0600 
3539 H        4.0944    -2.9814    10.4804 H     590 MOH   0.0600 
3540 H        5.7692    -2.5891     8.2120 H     590 MOH   0.4180 
3541 O       16.7135   -12.0214    12.8989 O.3   591 MOH  -0.6830 
3542 C       16.3400   -12.7273    11.7300 C.3   591 MOH   0.0850 
3543 H       16.9432   -13.6288    11.6155 H     591 MOH   0.0600 
3544 H       16.4836   -12.1110    10.8418 H     591 MOH   0.0600 
3545 H       15.2909   -13.0181    11.7764 H     591 MOH   0.0600 
3546 H       17.6356   -11.7560    12.7855 H     591 MOH   0.4180 
3547 O       16.7435    -5.9150     7.0699 O.3   592 MOH  -0.6830 
3548 C       17.2956    -5.7554     8.3614 C.3   592 MOH   0.0850 
3549 H       18.1179    -5.0388     8.3413 H     592 MOH   0.0600 
3550 H       17.6790    -6.7080     8.7281 H     592 MOH   0.0600 
3551 H       16.5426    -5.3949     9.0632 H     592 MOH   0.0600 
3552 H       17.4318    -6.2738     6.5012 H     592 MOH   0.4180 
3553 O       27.0738    -8.5431     8.6020 O.3   593 MOH  -0.6830 
3554 C       27.9718    -9.6197     8.8075 C.3   593 MOH   0.0850 
3555 H       28.4013    -9.9523     7.8632 H     593 MOH   0.0600 
3556 H       27.4534   -10.4688     9.2526 H     593 MOH   0.0600 
3557 H       28.7874    -9.3314     9.4709 H     593 MOH   0.0600 
3558 H       26.4323    -8.8313     7.9445 H     593 MOH   0.4180 
3559 O       19.7204     1.6459     6.8587 O.3   594 MOH  -0.6830 
3560 C       19.6638     2.8810     6.1689 C.3   594 MOH   0.0850 
3561 H       18.7146     2.9876     5.6421 H     594 MOH   0.0600 
3562 H       20.4704     2.9517     5.4386 H     594 MOH   0.0600 
3563 H       19.7591     3.7159     6.8638 H     594 MOH   0.0600 
3564 H       19.0162     1.6492     7.5201 H     594 MOH   0.4180 
3565 O       13.3633    -5.2366     4.2333 O.3   595 MOH  -0.6830 
3566 C       14.0790    -6.0697     5.1214 C.3   595 MOH   0.0850 
3567 H       14.2039    -5.5810     6.0875 H     595 MOH   0.0600 
3568 H       15.0682    -6.2918     4.7219 H     595 MOH   0.0600 
3569 H       13.5507    -7.0121     5.2725 H     595 MOH   0.0600 
3570 H       13.2459    -5.7219     3.4072 H     595 MOH   0.4180 
3571 O        6.0702     5.6493    12.1439 O.3   596 MOH  -0.6830 
3572 C        6.3429     4.7141    11.1216 C.3   596 MOH   0.0850 
3573 H        5.4197     4.4042    10.6313 H     596 MOH   0.0600 
3574 H        6.8257     3.8282    11.5347 H     596 MOH   0.0600 
3575 H        7.0040     5.1467    10.3706 H     596 MOH   0.0600 
3576 H        5.4827     5.2249    12.7833 H     596 MOH   0.4180 
3577 O        8.9020    -1.1030    21.6536 O.3   597 MOH  -0.6830 
3578 C        9.7302    -2.1439    22.1335 C.3   597 MOH   0.0850 
3579 H       10.0460    -1.9388    23.1571 H     597 MOH   0.0600 
3580 H       10.6217    -2.2365    21.5118 H     597 MOH   0.0600 
3581 H        9.2001    -3.0971    22.1197 H     597 MOH   0.0600 
3582 H        9.4133    -0.2831    21.6932 H     597 MOH   0.4180 
3583 O       -4.4459   -14.3703    13.7730 O.3   598 MOH  -0.6830 
3584 C       -3.8138   -14.4754    12.5131 C.3   598 MOH   0.0850 
3585 H       -4.3225   -15.2101    11.8885 H     598 MOH   0.0600 
3586 H       -2.7754   -14.7868    12.6237 H     598 MOH   0.0600 
3587 H       -3.8328   -13.5160    11.9951 H     598 MOH   0.0600 
3588 H       -5.3743   -14.1658    13.6127 H     598 MOH   0.4180 
3589 O       12.5418     6.5890    13.3826 O.3   599 MOH  -0.6830 
3590 C       12.1887     5.2164    13.3567 C.3   599 MOH   0.0850 
3591 H       11.4415     5.0244    12.5851 H     599 MOH   0.0600 
3592 H       11.7814     4.9002    14.3181 H     599 MOH   0.0600 
3593 H       13.0628     4.6010    13.1403 H     599 MOH   0.0600 
3594 H       12.8727     6.8118    12.4986 H     599 MOH   0.4180 
3595 O        5.4602   -12.9096    22.3292 O.3   600 MOH  -0.6830 
3596 C        4.8162   -13.9286    23.0683 C.3   600 MOH   0.0850 
3597 H        4.0075   -14.3718    22.4865 H     600 MOH   0.0600 
3598 H        4.3937   -13.5234    23.9884 H     600 MOH   0.0600 
3599 H        5.5201   -14.7183    23.3324 H     600 MOH   0.0600 
3600 H        4.8120   -12.2142    22.1544 H     600 MOH   0.4180 
3601 O       20.3557    -6.1562    14.2006 O.3   601 MOH  -0.6830 
3602 C       19.4351    -5.2453    14.7753 C.3   601 MOH   0.0850 
3603 H       19.7465    -4.2142    14.6013 H     601 MOH   0.0600 
3604 H       19.3545    -5.3991    15.8522 H     601 MOH   0.0600 
3605 H       18.4448    -5.3791    14.3390 H     601 MOH   0.0600 
3606 H       21.2142    -5.9782    14.5661 H     601 MOH   0.4180 
3607 O       19.2757   -11.0864    12.5292 O.3   602 MOH  -0.6830 
3608 C       20.5941   -11.5669    12.6981 C.3   602 MOH   0.0850 
3609 H       21.2925   -10.9806    12.0993 H     602 MOH   0.0600 
3610 H       20.6668   -12.6100    12.3888 H     602 MOH   0.0600 
3611 H       20.8944   -11.4971    13.7447 H     602 MOH   0.0600 
3612 H       19.2618   -10.1656    12.8252 H     602 MOH   0.4180 
3613 O       21.6658    -1.7993     9.7397 O.3   603 MOH  -0.6830 
3614 C       21.5760    -1.2643     8.4341 C.3   603 MOH   0.0850 
3615 H       21.5352    -2.0625     7.6923 H     603 MOH   0.0600 
3616 H       22.4401    -0.6370     8.2134 H     603 MOH   0.0600 
3617 H       20.6774    -0.6557     8.3293 H     603 MOH   0.0600 
3618 H       20.8946    -2.3539     9.8887 H     603 MOH   0.4180 
3619 O        6.3070    21.8293     6.4992 O.3   604 MOH  -0.6830 
3620 C        7.6484    21.9284     6.0612 C.3   604 MOH   0.0850 
3621 H        7.8872    22.9554     5.7818 H     604 MOH   0.0600 
3622 H        7.8191    21.2875     5.1958 H     604 MOH   0.0600 
3623 H        8.3322    21.6152     6.8512 H     604 MOH   0.0600 
3624 H        6.1474    20.9080     6.7364 H     604 MOH   0.4180 
3625 O        8.1254    -9.9155    20.4362 O.3   605 MOH  -0.6830 
3626 C        6.8587    -9.8097    19.8163 C.3   605 MOH   0.0850 
3627 H        6.0627    -9.8747    20.5582 H     605 MOH   0.0600 
3628 H        6.7183   -10.6159    19.0957 H     605 MOH   0.0600 
3629 H        6.7647    -8.8569    19.2936 H     605 MOH   0.0600 
3630 H        8.1499   -10.7458    20.9298 H     605 MOH   0.4180 
3631 O        7.7156   -13.7950    14.2235 O.3   606 MOH  -0.6830 
3632 C        7.8042   -14.1649    15.5855 C.3   606 MOH   0.0850 
3633 H        7.6436   -15.2371    15.7035 H     606 MOH   0.0600 
3634 H        7.0540   -13.6385    16.1763 H     606 MOH   0.0600 
3635 H        8.7898   -13.9223    15.9846 H     606 MOH   0.0600 
3636 H        8.4130   -14.2646    13.7473 H     606 MOH   0.4180 
3637 O        3.7307   -10.8199    21.8682 O.3   607 MOH  -0.6830 
3638 C        2.3197   -10.8262    21.9525 C.3   607 MOH   0.0850 
3639 H        1.9228   -11.8162    21.7235 H     607 MOH   0.0600 
3640 H        1.8916   -10.1111    21.2490 H     607 MOH   0.0600 
3641 H        1.9983   -10.5514    22.9573 H     607 MOH   0.0600 
3642 H        4.0357    -9.9327    22.1056 H     607 MOH   0.4180 
3643 O       14.9480   -15.2278    19.8139 O.3   608 MOH  -0.6830 
3644 C       15.8270   -14.6285    18.8794 C.3   608 MOH   0.0850 
3645 H       15.4632   -13.6405    18.5934 H     608 MOH   0.0600 
3646 H       15.9116   -15.2392    17.9797 H     608 MOH   0.0600 
3647 H       16.8229   -14.5116    19.3094 H     608 MOH   0.0600 
3648 H       14.9211   -14.6577    20.5890 H     608 MOH   0.4180 
3649 O       23.5925   -10.0398     0.3579 O.3   609 MOH  -0.6830 
3650 C       23.8846   -10.7135    -0.8513 C.3   609 MOH   0.0850 
3651 H       24.8289   -10.3629    -1.2694 H     609 MOH   0.0600 
3652 H       23.0997   -10.5434    -1.5885 H     609 MOH   0.0600 
3653 H       23.9637   -11.7872    -0.6812 H     609 MOH   0.0600 
3654 H       22.7366   -10.3539     0.6789 H     609 MOH   0.4180 
3655 O       20.0161   -13.2719     5.6894 O.3   610 MOH  -0.6830 
3656 C       19.1379   -14.3658     5.8792 C.3   610 MOH   0.0850 
3657 H       19.4726   -14.9893     6.7093 H     610 MOH   0.0600 
3658 H       19.0872   -14.9849     4.9831 H     610 MOH   0.0600 
3659 H       18.1328   -14.0117     6.1074 H     610 MOH   0.0600 
3660 H       20.0707   -12.8016     6.5316 H     610 MOH   0.4180 
3661 O       16.4575   -15.3520     8.3546 O.3   611 MOH  -0.6830 
3662 C       16.1083   -16.0064     7.1505 C.3   611 MOH   0.0850 
3663 H       15.6545   -15.3021     6.4537 H     611 MOH   0.0600 
3664 H       15.3944   -16.8083     7.3402 H     611 MOH   0.0600 
3665 H       16.9890   -16.4392     6.6750 H     611 MOH   0.0600 
3666 H       15.6482   -15.0465     8.7743 H     611 MOH   0.4180 
3667 O       17.3720    18.1671    17.6046 O.3   612 MOH  -0.6830 
3668 C       18.3123    18.2258    18.6602 C.3   612 MOH   0.0850 
3669 H       18.8071    19.1971    18.6849 H     612 MOH   0.0600 
3670 H       19.0761    17.4574    18.5346 H     612 MOH   0.0600 
3671 H       17.8219    18.0662    19.6208 H     612 MOH   0.0600 
3672 H       16.6673    18.8079    17.7769 H     612 MOH   0.4180 
3673 O       19.4329    -5.7201    -2.5578 O.3   613 MOH  -0.6830 
3674 C       20.4041    -6.2334    -1.6666 C.3   613 MOH   0.0850 
3675 H       20.3083    -5.7488    -0.6959 H     613 MOH   0.0600 
3676 H       21.4107    -6.0474    -2.0429 H     613 MOH   0.0600 
3677 H       20.2796    -7.3082    -1.5287 H     613 MOH   0.0600 
3678 H       19.6208    -4.7729    -2.6739 H     613 MOH   0.4180 
3679 O        9.5255    21.0843    16.3093 O.3   614 MOH  -0.6830 
3680 C        9.0353    21.5781    15.0776 C.3   614 MOH   0.0850 
3681 H        8.0251    21.2088    14.8949 H     614 MOH   0.0600 
3682 H        9.6737    21.2508    14.2560 H     614 MOH   0.0600 
3683 H        9.0096    22.6685    15.0787 H     614 MOH   0.0600 
3684 H        9.5656    20.1236    16.2393 H     614 MOH   0.4180 
3685 O       21.2095    -9.4390     8.6836 O.3   615 MOH  -0.6830 
3686 C       20.1513    -8.7796     9.3559 C.3   615 MOH   0.0850 
3687 H       19.1911    -9.0587     8.9194 H     615 MOH   0.0600 
3688 H       20.2588    -7.6971     9.2753 H     615 MOH   0.0600 
3689 H       20.1409    -9.0457    10.4143 H     615 MOH   0.0600 
3690 H       22.0439    -9.1074     9.0457 H     615 MOH   0.4180 
3691 O       18.2225    18.1048    15.0203 O.3   616 MOH  -0.6830 
3692 C       18.6312    19.4288    14.7363 C.3   616 MOH   0.0850 
3693 H       19.4481    19.7255    15.3956 H     616 MOH   0.0600 
3694 H       17.8045    20.1239    14.8879 H     616 MOH   0.0600 
3695 H       18.9705    19.5174    13.7041 H     616 MOH   0.0600 
3696 H       17.9270    18.0929    15.9416 H     616 MOH   0.4180 
3697 O       18.8044    -6.9593     5.4852 O.3   617 MOH  -0.6830 
3698 C       19.3164    -5.8284     4.8032 C.3   617 MOH   0.0850 
3699 H       18.5154    -5.1373     4.5395 H     617 MOH   0.0600 
3700 H       19.8254    -6.1291     3.8865 H     617 MOH   0.0600 
3701 H       20.0332    -5.2951     5.4291 H     617 MOH   0.0600 
3702 H       19.5440    -7.5472     5.6701 H     617 MOH   0.4180 
3703 O       20.9274    -0.3939     5.3700 O.3   618 MOH  -0.6830 
3704 C       19.8431    -1.0701     4.7656 C.3   618 MOH   0.0850 
3705 H       20.1886    -1.9281     4.1893 H     618 MOH   0.0600 
3706 H       19.3079    -0.4047     4.0899 H     618 MOH   0.0600 
3707 H       19.1428    -1.4248     5.5222 H     618 MOH   0.0600 
3708 H       20.5752     0.3524     5.8659 H     618 MOH   0.4180 
3709 O       21.1454   -10.7794     1.4009 O.3   619 MOH  -0.6830 
3710 C       20.3054   -10.7363     0.2640 C.3   619 MOH   0.0850 
3711 H       19.3067   -10.4069     0.5455 H     619 MOH   0.0600 
3712 H       20.2140   -11.7272    -0.1798 H     619 MOH   0.0600 
3713 H       20.6956   -10.0513    -0.4891 H     619 MOH   0.0600 
3714 H       20.7218   -11.3721     2.0376 H     619 MOH   0.4180 
3715 O       20.1712   -11.9237     8.0655 O.3   620 MOH  -0.6830 
3716 C       19.1860   -12.3063     9.0089 C.3   620 MOH   0.0850 
3717 H       18.7151   -13.2481     8.7230 H     620 MOH   0.0600 
3718 H       18.4093   -11.5446     9.0840 H     620 MOH   0.0600 
3719 H       19.6287   -12.4306     9.9967 H     620 MOH   0.0600 
3720 H       20.5262   -11.0727     8.3460 H     620 MOH   0.4180 
3721 O       20.9297    -8.7068     6.0523 O.3   621 MOH  -0.6830 
3722 C       20.7096    -9.8391     5.2285 C.3   621 MOH   0.0850 
3723 H       19.7771   -10.3362     5.5007 H     621 MOH   0.0600 
3724 H       21.5204   -10.5604     5.3407 H     621 MOH   0.0600 
3725 H       20.6498    -9.5533     4.1774 H     621 MOH   0.0600 
3726 H       20.9826    -9.0216     6.9641 H     621 MOH   0.4180 
3727 O       15.3166    -2.1327    10.0811 O.3   622 MOH  -0.6830 
3728 C       14.9477    -2.7482     8.8627 C.3   622 MOH   0.0850 
3729 H       14.4845    -3.7182     9.0476 H     622 MOH   0.0600 
3730 H       15.8201    -2.8987     8.2257 H     622 MOH   0.0600 
3731 H       14.2321    -2.1250     8.3262 H     622 MOH   0.0600 
3732 H       14.5264    -2.0928    10.6377 H     622 MOH   0.4180 
3733 O       17.3328    -2.2096    11.8756 O.3   623 MOH  -0.6830 
3734 C       16.8920    -3.0294    12.9442 C.3   623 MOH   0.0850 
3735 H       17.6223    -3.0369    13.7539 H     623 MOH   0.0600 
3736 H       16.7383    -4.0558    12.6071 H     623 MOH   0.0600 
3737 H       15.9476    -2.6619    13.3455 H     623 MOH   0.0600 
3738 H       16.6153    -2.1754    11.2228 H     623 MOH   0.4180 
3739 O       19.1066    -8.4905    13.3803 O.3   624 MOH  -0.6830 
3740 C       17.7573    -8.3112    13.7679 C.3   624 MOH   0.0850 
3741 H       17.1705    -9.2065    13.5602 H     624 MOH   0.0600 
3742 H       17.3158    -7.4737    13.2264 H     624 MOH   0.0600 
3743 H       17.6875    -8.0974    14.8348 H     624 MOH   0.0600 
3744 H       19.5783    -7.6849    13.6262 H     624 MOH   0.4180 
3745 O        9.8261   -10.2852    11.8708 O.3   625 MOH  -0.6830 
3746 C        9.3535   -11.5559    12.2779 C.3   625 MOH   0.0850 
3747 H        9.5761   -11.7286    13.3318 H     625 MOH   0.0600 
3748 H        9.8289   -12.3451    11.6958 H     625 MOH   0.0600 
3749 H        8.2756   -11.6333    12.1404 H     625 MOH   0.0600 
3750 H       10.7738   -10.2640    12.0645 H     625 MOH   0.4180 
3751 O       20.0697    -0.2549    15.2899 O.3   626 MOH  -0.6830 
3752 C       20.7166     0.9719    15.5672 C.3   626 MOH   0.0850 
3753 H       21.3761     1.2538    14.7457 H     626 MOH   0.0600 
3754 H       21.3167     0.8935    16.4740 H     626 MOH   0.0600 
3755 H       19.9863     1.7687    15.7090 H     626 MOH   0.0600 
3756 H       19.5692    -0.1549    14.4802 H     626 MOH   0.4180 
3757 O       10.3535    12.2414     1.8213 O.3   627 MOH  -0.6830 
3758 C       11.3050    11.8303     0.8566 C.3   627 MOH   0.0850 
3759 H       11.6866    12.6839     0.2954 H     627 MOH   0.0600 
3760 H       10.8611    11.1287     0.1494 H     627 MOH   0.0600 
3761 H       12.1444    11.3289     1.3389 H     627 MOH   0.0600 
3762 H        9.9909    11.4381     2.2148 H     627 MOH   0.4180 
3763 O       15.5508    14.2269     1.8388 O.3   628 MOH  -0.6830 
3764 C       14.4018    13.5714     1.3355 C.3   628 MOH   0.0850 
3765 H       13.6082    14.2906     1.1286 H     628 MOH   0.0600 
3766 H       14.0259    12.8383     2.0492 H     628 MOH   0.0600 
3767 H       14.6374    13.0542     0.4053 H     628 MOH   0.0600 
3768 H       15.8932    14.7703     1.1160 H     628 MOH   0.4180 
3769 O       13.9392     4.2314    -7.1076 O.3   629 MOH  -0.6830 
3770 C       14.2941     2.8688    -7.2474 C.3   629 MOH   0.0850 
3771 H       15.2673     2.6750    -6.7976 H     629 MOH   0.0600 
3772 H       14.3530     2.5917    -8.2993 H     629 MOH   0.0600 
3773 H       13.5576     2.2258    -6.7664 H     629 MOH   0.0600 
3774 H       14.5323     4.7426    -7.6598 H     629 MOH   0.4180 
3775 O       16.9367    11.3248    20.9190 O.3   630 MOH  -0.6830 
3776 C       16.3515    11.5182    22.1943 C.3   630 MOH   0.0850 
3777 H       16.8716    12.3048    22.7425 H     630 MOH   0.0600 
3778 H       15.3046    11.8084    22.0995 H     630 MOH   0.0600 
3779 H       16.4002    10.6017    22.7832 H     630 MOH   0.0600 
3780 H       16.9274    12.1718    20.4573 H     630 MOH   0.4180 
3781 O       10.8601     3.4805    -4.0103 O.3   631 MOH  -0.6830 
3782 C       10.9357     3.9189    -5.3550 C.3   631 MOH   0.0850 
3783 H       11.4450     4.8794    -5.4339 H     631 MOH   0.0600 
3784 H        9.9365     4.0275    -5.7777 H     631 MOH   0.0600 
3785 H       11.4825     3.1951    -5.9598 H     631 MOH   0.0600 
3786 H       10.4658     2.5961    -4.0247 H     631 MOH   0.4180 
3787 O        5.2628     4.0980   -10.6846 O.3   632 MOH  -0.6830 
3788 C        4.8158     4.7930    -9.5376 C.3   632 MOH   0.0850 
3789 H        3.7438     4.6484    -9.3995 H     632 MOH   0.0600 
3790 H        5.0103     5.8616    -9.6304 H     632 MOH   0.0600 
3791 H        5.3266     4.4213    -8.6480 H     632 MOH   0.0600 
3792 H        5.0462     3.1680   -10.5511 H     632 MOH   0.4180 
3793 O       18.0060    15.9934    -2.5590 O.3   633 MOH  -0.6830 
3794 C       18.8469    15.2661    -3.4321 C.3   633 MOH   0.0850 
3795 H       19.8183    15.0858    -2.9698 H     633 MOH   0.0600 
3796 H       19.0060    15.8163    -4.3601 H     633 MOH   0.0600 
3797 H       18.3998    14.3050    -3.6803 H     633 MOH   0.0600 
3798 H       18.3936    16.8762    -2.4595 H     633 MOH   0.4180 
3799 O       16.6372    -2.5651    -5.6865 O.3   634 MOH  -0.6830 
3800 C       17.5558    -3.6262    -5.8572 C.3   634 MOH   0.0850 
3801 H       18.3790    -3.3246    -6.5048 H     634 MOH   0.0600 
3802 H       17.0663    -4.4931    -6.3024 H     634 MOH   0.0600 
3803 H       17.9715    -3.9294    -4.8974 H     634 MOH   0.0600 
3804 H       15.9878    -2.8376    -5.0218 H     634 MOH   0.4180 
3805 O       17.4419     2.8180     2.9722 O.3   635 MOH  -0.6830 
3806 C       18.7151     2.3809     2.5289 C.3   635 MOH   0.0850 
3807 H       19.5077     2.8050     3.1453 H     635 MOH   0.0600 
3808 H       18.8890     2.6898     1.4980 H     635 MOH   0.0600 
3809 H       18.7957     1.2954     2.5729 H     635 MOH   0.0600 
3810 H       17.4242     3.7723     2.8655 H     635 MOH   0.4180 
3811 O       20.1999    12.6000    -9.1946 O.3   636 MOH  -0.6830 
3812 C       21.5795    12.3209    -9.0258 C.3   636 MOH   0.0850 
3813 H       22.1927    13.0610    -9.5413 H     636 MOH   0.0600 
3814 H       21.8292    11.3353    -9.4213 H     636 MOH   0.0600 
3815 H       21.8475    12.3373    -7.9682 H     636 MOH   0.0600 
3816 H       20.0074    12.6232   -10.1241 H     636 MOH   0.4180 
3817 O        7.1041     7.4333   -12.6309 O.3   637 MOH  -0.6830 
3818 C        5.7011     7.6046   -12.5607 C.3   637 MOH   0.0850 
3819 H        5.4061     8.5697   -12.9746 H     637 MOH   0.0600 
3820 H        5.3642     7.5611   -11.5248 H     637 MOH   0.0600 
3821 H        5.1913     6.8207   -13.1222 H     637 MOH   0.0600 
3822 H        7.3095     6.5518   -12.2905 H     637 MOH   0.4180 
3823 O       11.0962     3.8081     8.8400 O.3   638 MOH  -0.6830 
3824 C        9.7274     3.5039     8.6636 C.3   638 MOH   0.0850 
3825 H        9.6117     2.6258     8.0285 H     638 MOH   0.0600 
3826 H        9.2042     4.3336     8.1903 H     638 MOH   0.0600 
3827 H        9.2538     3.3000     9.6245 H     638 MOH   0.0600 
3828 H       11.5105     3.0428     9.2620 H     638 MOH   0.4180 
3829 O       19.7576    12.0474    -4.1756 O.3   639 MOH  -0.6830 
3830 C       20.8235    11.1251    -4.3195 C.3   639 MOH   0.0850 
3831 H       21.1090    10.7005    -3.3569 H     639 MOH   0.0600 
3832 H       21.6988    11.6107    -4.7533 H     639 MOH   0.0600 
3833 H       20.5347    10.3055    -4.9779 H     639 MOH   0.0600 
3834 H       19.5567    12.3858    -5.0605 H     639 MOH   0.4180 
3835 O        4.5154    10.3452   -10.7699 O.3   640 MOH  -0.6830 
3836 C        3.6271    11.4445   -10.7956 C.3   640 MOH   0.0850 
3837 H        2.8401    11.2953   -11.5346 H     640 MOH   0.0600 
3838 H        4.1611    12.3624   -11.0431 H     640 MOH   0.0600 
3839 H        3.1583    11.5778    -9.8207 H     640 MOH   0.0600 
3840 H        5.1538    10.5060   -10.0685 H     640 MOH   0.4180 
3841 O       14.5751     8.0052    -3.9379 O.3   641 MOH  -0.6830 
3842 C       15.3525     6.8632    -3.6453 C.3   641 MOH   0.0850 
3843 H       15.8763     7.0016    -2.7001 H     641 MOH   0.0600 
3844 H       16.0919     6.6953    -4.4284 H     641 MOH   0.0600 
3845 H       14.7309     5.9717    -3.5646 H     641 MOH   0.0600 
3846 H       15.1735     8.7598    -4.0057 H     641 MOH   0.4180 
3847 O       20.6805     3.7413   -16.2529 O.3   642 MOH  -0.6830 
3848 C       19.7396     3.5508   -17.2915 C.3   642 MOH   0.0850 
3849 H       19.0806     4.4155   -17.3723 H     642 MOH   0.0600 
3850 H       19.1244     2.6731   -17.0906 H     642 MOH   0.0600 
3851 H       20.2423     3.4101   -18.2487 H     642 MOH   0.0600 
3852 H       20.1777     3.8395   -15.4326 H     642 MOH   0.4180 
3853 O       12.6353     0.6008    -9.3646 O.3   643 MOH  -0.6830 
3854 C       13.7665     0.0483   -10.0069 C.3   643 MOH   0.0850 
3855 H       14.6791     0.3359    -9.4837 H     643 MOH   0.0600 
3856 H       13.8354     0.3967   -11.0373 H     643 MOH   0.0600 
3857 H       13.7060    -1.0401   -10.0178 H     643 MOH   0.0600 
3858 H       12.6507     0.3090    -8.4429 H     643 MOH   0.4180 
3859 O       14.1552    14.5042   -17.4996 O.3   644 MOH  -0.6830 
3860 C       13.3938    15.6970   -17.5138 C.3   644 MOH   0.0850 
3861 H       12.3460    15.4821   -17.7281 H     644 MOH   0.0600 
3862 H       13.7611    16.3781   -18.2828 H     644 MOH   0.0600 
3863 H       13.4486    16.2053   -16.5512 H     644 MOH   0.0600 
3864 H       14.0631    14.1049   -18.3735 H     644 MOH   0.4180 
3865 O       24.3239     9.0988   -16.0709 O.3   645 MOH  -0.6830 
3866 C       23.0624     9.7112   -15.8805 C.3   645 MOH   0.0850 
3867 H       23.0773    10.7416   -16.2379 H     645 MOH   0.0600 
3868 H       22.7970     9.7186   -14.8229 H     645 MOH   0.0600 
3869 H       22.2857     9.1739   -16.4253 H     645 MOH   0.0600 
3870 H       24.2844     8.2061   -15.6992 H     645 MOH   0.4180 
3871 O       12.0426    10.2263     5.7993 O.3   646 MOH  -0.6830 
3872 C       12.1788     8.9108     6.3065 C.3   646 MOH   0.0850 
3873 H       11.2089     8.4178     6.3798 H     646 MOH   0.0600 
3874 H       12.6267     8.9264     7.3003 H     646 MOH   0.0600 
3875 H       12.8196     8.3122     5.6586 H     646 MOH   0.0600 
3876 H       12.9039    10.6502     5.8806 H     646 MOH   0.4180 
3877 O       13.5928    13.9789    -3.7623 O.3   647 MOH  -0.6830 
3878 C       14.2302    15.1610    -3.3184 C.3   647 MOH   0.0850 
3879 H       13.8625    15.4464    -2.3323 H     647 MOH   0.0600 
3880 H       14.0386    15.9823    -4.0097 H     647 MOH   0.0600 
3881 H       15.3096    15.0170    -3.2556 H     647 MOH   0.0600 
3882 H       13.9327    13.7748    -4.6447 H     647 MOH   0.4180 
3883 O       10.4816    15.0017     2.0934 O.3   648 MOH  -0.6830 
3884 C        9.3439    15.5666     1.4721 C.3   648 MOH   0.0850 
3885 H        9.3019    15.2854     0.4189 H     648 MOH   0.0600 
3886 H        9.3652    16.6550     1.5361 H     648 MOH   0.0600 
3887 H        8.4366    15.2112     1.9599 H     648 MOH   0.0600 
3888 H       10.4217    14.0446     1.9864 H     648 MOH   0.4180 
3889 O       10.2988     1.6823   -10.2766 O.3   649 MOH  -0.6830 
3890 C        9.6114     2.0844    -9.1071 C.3   649 MOH   0.0850 
3891 H        9.2341     1.2167    -8.5646 H     649 MOH   0.0600 
3892 H        8.7664     2.7267    -9.3536 H     649 MOH   0.0600 
3893 H       10.2764     2.6378    -8.4435 H     649 MOH   0.0600 
3894 H       11.1053     1.2318   -10.0006 H     649 MOH   0.4180 
3895 O       17.8061     5.5630     2.1900 O.3   650 MOH  -0.6830 
3896 C       17.1999     6.6048     2.9357 C.3   650 MOH   0.0850 
3897 H       17.4019     6.4899     4.0006 H     650 MOH   0.0600 
3898 H       17.5784     7.5781     2.6207 H     650 MOH   0.0600 
3899 H       16.1192     6.6019     2.7971 H     650 MOH   0.0600 
3900 H       17.4725     5.6272     1.2903 H     650 MOH   0.4180 
3901 O       12.5715    12.3584   -11.2723 O.3   651 MOH  -0.6830 
3902 C       12.0840    11.3922   -10.3598 C.3   651 MOH   0.0850 
3903 H       12.7957    11.2241    -9.5511 H     651 MOH   0.0600 
3904 H       11.9067    10.4414   -10.8627 H     651 MOH   0.0600 
3905 H       11.1459    11.7233    -9.9171 H     651 MOH   0.0600 
3906 H       13.4931    12.1500   -11.4608 H     651 MOH   0.4180 
3907 O       16.8046    13.6812    19.4970 O.3   652 MOH  -0.6830 
3908 C       17.1697    14.8626    20.1867 C.3   652 MOH   0.0850 
3909 H       16.8346    15.7421    19.6357 H     652 MOH   0.0600 
3910 H       18.2528    14.9224    20.2955 H     652 MOH   0.0600 
3911 H       16.7217    14.8870    21.1810 H     652 MOH   0.0600 
3912 H       17.2540    13.7026    18.6367 H     652 MOH   0.4180 
3913 O       11.8991     8.6667    -7.3887 O.3   653 MOH  -0.6830 
3914 C       13.1218     8.6154    -6.6838 C.3   653 MOH   0.0850 
3915 H       13.3439     7.5916    -6.3781 H     653 MOH   0.0600 
3916 H       13.0707     9.2384    -5.7915 H     653 MOH   0.0600 
3917 H       13.9416     8.9737    -7.3067 H     653 MOH   0.0600 
3918 H       11.9564     8.0187    -8.1031 H     653 MOH   0.4180 
3919 O       25.7713    -3.7827    -9.1240 O.3   654 MOH  -0.6830 
3920 C       25.7361    -3.9188   -10.5334 C.3   654 MOH   0.0850 
3921 H       24.7055    -3.9665   -10.8861 H     654 MOH   0.0600 
3922 H       26.2510    -4.8271   -10.8506 H     654 MOH   0.0600 
3923 H       26.2220    -3.0652   -11.0082 H     654 MOH   0.0600 
3924 H       25.3029    -2.9622    -8.9067 H     654 MOH   0.4180 
3925 O       17.6013     2.6851    -3.3214 O.3   655 MOH  -0.6830 
3926 C       18.7734     1.9875    -2.9416 C.3   655 MOH   0.0850 
3927 H       18.5899     0.9133    -2.8997 H     655 MOH   0.0600 
3928 H       19.1120     2.3148    -1.9579 H     655 MOH   0.0600 
3929 H       19.5772     2.1715    -3.6551 H     655 MOH   0.0600 
3930 H       17.8043     3.6274    -3.2658 H     655 MOH   0.4180 
3931 O        7.7633     4.1850     5.6162 O.3   656 MOH  -0.6830 
3932 C        6.8400     4.7482     4.7039 C.3   656 MOH   0.0850 
3933 H        6.0409     4.0415     4.4765 H     656 MOH   0.0600 
3934 H        7.3339     5.0193     3.7704 H     656 MOH   0.0600 
3935 H        6.3863     5.6440     5.1263 H     656 MOH   0.0600 
3936 H        7.2812     3.9711     6.4216 H     656 MOH   0.4180 
3937 O        9.7919     7.8161    -5.8709 O.3   657 MOH  -0.6830 
3938 C        9.2802     8.8315    -5.0310 C.3   657 MOH   0.0850 
3939 H        8.9189     9.6696    -5.6263 H     657 MOH   0.0600 
3940 H       10.0553     9.1976    -4.3569 H     657 MOH   0.0600 
3941 H        8.4507     8.4591    -4.4290 H     657 MOH   0.0600 
3942 H       10.5549     8.1755    -6.3428 H     657 MOH   0.4180 
3943 O       13.3208    17.0125   -12.2738 O.3   658 MOH  -0.6830 
3944 C       12.3241    16.0268   -12.0790 C.3   658 MOH   0.0850 
3945 H       11.5405    16.1089   -12.8330 H     658 MOH   0.0600 
3946 H       11.8656    16.1318   -11.0952 H     658 MOH   0.0600 
3947 H       12.7572    15.0289   -12.1453 H     658 MOH   0.0600 
3948 H       12.9079    17.8630   -12.2133 H     658 MOH   0.4180 
3949 O       19.1112     8.2289    -7.4328 O.3   659 MOH  -0.6830 
3950 C       19.9160     9.3206    -7.8330 C.3   659 MOH   0.0850 
3951 H       19.6314    10.2275    -7.3004 H     659 MOH   0.0600 
3952 H       19.8074     9.5043    -8.9021 H     659 MOH   0.0600 
3953 H       20.9681     9.1190    -7.6321 H     659 MOH   0.0600 
3954 H       19.4132     7.4556    -7.9218 H     659 MOH   0.4180 
3955 O        9.7735     0.9772    -4.0037 O.3   660 MOH  -0.6830 
3956 C        9.4217     0.5507    -5.3041 C.3   660 MOH   0.0850 
3957 H        9.5813     1.3447    -6.0334 H     660 MOH   0.0600 
3958 H        8.3720     0.2580    -5.3394 H     660 MOH   0.0600 
3959 H       10.0256    -0.3080    -5.5930 H     660 MOH   0.0600 
3960 H        9.6354     0.2359    -3.4102 H     660 MOH   0.4180 
3961 O        9.5352    12.3366    -5.7819 O.3   661 MOH  -0.6830 
3962 C       10.8492    12.1382    -6.2684 C.3   661 MOH   0.0850 
3963 H       10.9341    12.4868    -7.2979 H     661 MOH   0.0600 
3964 H       11.1118    11.0802    -6.2456 H     661 MOH   0.0600 
3965 H       11.5714    12.6844    -5.6593 H     661 MOH   0.0600 
3966 H        9.4901    11.9772    -4.8859 H     661 MOH   0.4180 
3967 O       13.8247     5.8811    -0.5455 O.3   662 MOH  -0.6830 
3968 C       13.3067     6.1612     0.7419 C.3   662 MOH   0.0850 
3969 H       12.7726     5.2965     1.1375 H     662 MOH   0.0600 
3970 H       12.6160     7.0047     0.7011 H     662 MOH   0.0600 
3971 H       14.1091     6.4111     1.4360 H     662 MOH   0.0600 
3972 H       13.0804     5.6946    -1.1277 H     662 MOH   0.4180 
3973 O       11.7022    10.3231     9.4373 O.3   663 MOH  -0.6830 
3974 C       11.2027    11.5577     8.9666 C.3   663 MOH   0.0850 
3975 H       12.0029    12.1562     8.5300 H     663 MOH   0.0600 
3976 H       10.7512    12.1240     9.7823 H     663 MOH   0.0600 
3977 H       10.4446    11.3873     8.2022 H     663 MOH   0.0600 
3978 H       10.9469     9.7789     9.6977 H     663 MOH   0.4180 
3979 O        7.4670     3.3205    -6.9115 O.3   664 MOH  -0.6830 
3980 C        6.7376     2.9338    -5.7642 C.3   664 MOH   0.0850 
3981 H        6.4517     1.8835    -5.8231 H     664 MOH   0.0600 
3982 H        5.8301     3.5312    -5.6718 H     664 MOH   0.0600 
3983 H        7.3356     3.0766    -4.8631 H     664 MOH   0.0600 
3984 H        7.6308     4.2685    -6.8453 H     664 MOH   0.4180 
3985 O       24.6596     0.8988    -7.2695 O.3   665 MOH  -0.6830 
3986 C       24.0203     1.8629    -8.0865 C.3   665 MOH   0.0850 
3987 H       22.9393     1.8329    -7.9416 H     665 MOH   0.0600 
3988 H       24.2285     1.6786    -9.1410 H     665 MOH   0.0600 
3989 H       24.3715     2.8655    -7.8376 H     665 MOH   0.0600 
3990 H       24.4994     1.1571    -6.3494 H     665 MOH   0.4180 
3991 O       19.3594     9.2149    -1.4470 O.3   666 MOH  -0.6830 
3992 C       18.7212     8.5870    -0.3514 C.3   666 MOH   0.0850 
3993 H       19.2660     7.6943    -0.0426 H     666 MOH   0.0600 
3994 H       17.7078     8.2895    -0.6199 H     666 MOH   0.0600 
3995 H       18.6670     9.2668     0.4987 H     666 MOH   0.0600 
3996 H       18.8378     9.9930    -1.6769 H     666 MOH   0.4180 
3997 O        4.1399     5.4890    -4.4780 O.3   667 MOH  -0.6830 
3998 C        4.5030     6.7274    -3.8995 C.3   667 MOH   0.0850 
3999 H        5.2878     7.2059    -4.4844 H     667 MOH   0.0600 
4000 H        4.8704     6.5965    -2.8823 H     667 MOH   0.0600 
4001 H        3.6432     7.3968    -3.8693 H     667 MOH   0.0600 
4002 H        3.6971     5.6840    -5.3104 H     667 MOH   0.4180 
4003 O       26.4929    12.9491   -17.2623 O.3   668 MOH  -0.6830 
4004 C       26.4716    13.1355   -18.6665 C.3   668 MOH   0.0850 
4005 H       25.5107    12.8250   -19.0785 H     668 MOH   0.0600 
4006 H       27.2546    12.5446   -19.1433 H     668 MOH   0.0600 
4007 H       26.6289    14.1832   -18.9240 H     668 MOH   0.0600 
4008 H       26.5403    11.9932   -17.1087 H     668 MOH   0.4180 
4009 O       15.9218    14.3118   -15.3697 O.3   669 MOH  -0.6830 
4010 C       15.5978    15.3384   -14.4531 C.3   669 MOH   0.0850 
4011 H       15.7352    16.3181   -14.9116 H     669 MOH   0.0600 
4012 H       16.2312    15.2783   -13.5677 H     669 MOH   0.0600 
4013 H       14.5585    15.2533   -14.1351 H     669 MOH   0.0600 
4014 H       15.3152    14.3772   -16.1153 H     669 MOH   0.4180 
4015 O       15.3972    10.3458    -9.4379 O.3   670 MOH  -0.6830 
4016 C       16.7664    10.2587    -9.0998 C.3   670 MOH   0.0850 
4017 H       17.3209     9.7369    -9.8799 H     670 MOH   0.0600 
4018 H       16.8948     9.7139    -8.1656 H     670 MOH   0.0600 
4019 H       17.1996    11.2522    -8.9809 H     670 MOH   0.0600 
4020 H       15.3345    10.8709   -10.2402 H     670 MOH   0.4180 
4021 O       24.6833    15.0412   -16.8344 O.3   671 MOH  -0.6830 
4022 C       24.8030    15.5070   -15.5027 C.3   671 MOH   0.0850 
4023 H       25.8219    15.8426   -15.3039 H     671 MOH   0.0600 
4024 H       24.5627    14.7120   -14.7953 H     671 MOH   0.0600 
4025 H       24.1261    16.3428   -15.3227 H     671 MOH   0.0600 
4026 H       25.3049    14.3092   -16.9382 H     671 MOH   0.4180 
4027 O       15.2784    11.9272   -11.7189 O.3   672 MOH  -0.6830 
4028 C       15.3325    11.8197   -13.1308 C.3   672 MOH   0.0850 
4029 H       16.3646    11.7665   -13.4793 H     672 MOH   0.0600 
4030 H       14.8600    12.6849   -13.5934 H     672 MOH   0.0600 
4031 H       14.8087    10.9290   -13.4776 H     672 MOH   0.0600 
4032 H       15.8825    12.6362   -11.4552 H     672 MOH   0.4180 
4033 O       27.5351    13.6774   -14.8146 O.3   673 MOH  -0.6830 
4034 C       28.7363    12.9666   -14.5845 C.3   673 MOH   0.0850 
4035 H       29.4527    13.1503   -15.3859 H     673 MOH   0.0600 
4036 H       28.5437    11.8948   -14.5388 H     673 MOH   0.0600 
4037 H       29.1898    13.2729   -13.6422 H     673 MOH   0.0600 
4038 H       27.2379    13.4671   -15.7055 H     673 MOH   0.4180 
4039 O       -4.7700     9.6349    -8.7344 O.3   674 MOH  -0.6830 
4040 C       -4.0745     9.7072    -9.9659 C.3   674 MOH   0.0850 
4041 H       -4.1396     8.7602   -10.5028 H     674 MOH   0.0600 
4042 H       -3.0212     9.9343    -9.8008 H     674 MOH   0.0600 
4043 H       -4.4951    10.4873   -10.6018 H     674 MOH   0.0600 
4044 H       -5.6947     9.4419    -8.9333 H     674 MOH   0.4180 
4045 O        6.3400    10.9043    -3.2830 O.3   675 MOH  -0.6830 
4046 C        5.6039    10.2723    -4.3099 C.3   675 MOH   0.0850 
4047 H        5.0618    11.0081    -4.9040 H     675 MOH   0.0600 
4048 H        4.8702     9.5907    -3.8812 H     675 MOH   0.0600 
4049 H        6.2572     9.7052    -4.9719 H     675 MOH   0.0600 
4050 H        5.6937    11.3321    -2.7030 H     675 MOH   0.4180 
4051 O        3.5270    11.2075     0.7690 O.3   676 MOH  -0.6830 
4052 C        2.5158    10.8147     1.6756 C.3   676 MOH   0.0850 
4053 H        1.6765    10.3583     1.1513 H     676 MOH   0.0600 
4054 H        2.1453    11.6795     2.2245 H     676 MOH   0.0600 
4055 H        2.9045    10.0931     2.3953 H     676 MOH   0.0600 
4056 H        4.2654    11.5489     1.2920 H     676 MOH   0.4180 
4057 O       16.8917    13.7908   -10.5214 O.3   677 MOH  -0.6830 
4058 C       17.7063    14.9053   -10.8247 C.3   677 MOH   0.0850 
4059 H       17.0909    15.7901   -10.9943 H     677 MOH   0.0600 
4060 H       18.2981    14.7184   -11.7214 H     677 MOH   0.0600 
4061 H       18.3852    15.1173    -9.9974 H     677 MOH   0.0600 
4062 H       16.3736    14.0239    -9.7429 H     677 MOH   0.4180 
4063 O        5.9362     5.5133   -16.8073 O.3   678 MOH  -0.6830 
4064 C        6.5107     4.5571   -15.9370 C.3   678 MOH   0.0850 
4065 H        7.3094     5.0067   -15.3460 H     678 MOH   0.0600 
4066 H        6.9298     3.7242   -16.5031 H     678 MOH   0.0600 
4067 H        5.7616     4.1590   -15.2513 H     678 MOH   0.0600 
4068 H        5.2102     5.0931   -17.2774 H     678 MOH   0.4180 
4069 O        8.0558    14.4393    -4.7568 O.3   679 MOH  -0.6830 
4070 C        6.6609    14.2418    -4.8763 C.3   679 MOH   0.0850 
4071 H        6.3615    13.3169    -4.3852 H     679 MOH   0.0600 
4072 H        6.3695    14.1851    -5.9248 H     679 MOH   0.0600 
4073 H        6.1149    15.0649    -4.4144 H     679 MOH   0.0600 
4074 H        8.5084    13.7021    -5.1817 H     679 MOH   0.4180 
4075 O        6.4115    10.9567    -8.7937 O.3   680 MOH  -0.6830 
4076 C        6.6539    11.6419    -7.5825 C.3   680 MOH   0.0850 
4077 H        7.2013    11.0050    -6.8871 H     680 MOH   0.0600 
4078 H        5.7161    11.9417    -7.1159 H     680 MOH   0.0600 
4079 H        7.2533    12.5353    -7.7632 H     680 MOH   0.0600 
4080 H        7.2765    10.7809    -9.1876 H     680 MOH   0.4180 
4081 O        4.3779    11.9488    -1.7324 O.3   681 MOH  -0.6830 
4082 C        3.2880    12.5589    -2.3938 C.3   681 MOH   0.0850 
4083 H        3.5888    12.9514    -3.3657 H     681 MOH   0.0600 
4084 H        2.8965    13.3820    -1.7956 H     681 MOH   0.0600 
4085 H        2.4836    11.8382    -2.5459 H     681 MOH   0.0600 
4086 H        4.0565    11.6688    -0.8650 H     681 MOH   0.4180 
4087 O       16.3747    10.0370    -4.0745 O.3   682 MOH  -0.6830 
4088 C       17.2747     9.7383    -5.1255 C.3   682 MOH   0.0850 
4089 H       17.5908    10.6495    -5.6343 H     682 MOH   0.0600 
4090 H       16.8065     9.0794    -5.8571 H     682 MOH   0.0600 
4091 H       18.1663     9.2411    -4.7423 H     682 MOH   0.0600 
4092 H       16.8516    10.5659    -3.4273 H     682 MOH   0.4180 
4093 O       16.7147     9.3229    10.0398 O.3   683 MOH  -0.6830 
4094 C       17.0982     8.4863    11.1125 C.3   683 MOH   0.0850 
4095 H       17.0034     9.0141    12.0623 H     683 MOH   0.0600 
4096 H       18.1341     8.1669    10.9979 H     683 MOH   0.0600 
4097 H       16.4641     7.5997    11.1500 H     683 MOH   0.0600 
4098 H       15.8034     9.5885    10.1957 H     683 MOH   0.4180 
4099 O       23.1102    11.0802    20.0021 O.3   684 MOH  -0.6830 
4100 C       23.9835    10.1813    20.6572 C.3   684 MOH   0.0850 
4101 H       24.4663    10.6700    21.5037 H     684 MOH   0.0600 
4102 H       24.7584     9.8271    19.9769 H     684 MOH   0.0600 
4103 H       23.4326     9.3190    21.0333 H     684 MOH   0.0600 
4104 H       22.4589    11.3769    20.6513 H     684 MOH   0.4180 
4105 O       14.1757    -7.9951    -5.7536 O.3   685 MOH  -0.6830 
4106 C       15.0829    -7.0535    -6.2931 C.3   685 MOH   0.0850 
4107 H       16.1083    -7.4065    -6.1897 H     685 MOH   0.0600 
4108 H       14.9979    -6.0978    -5.7756 H     685 MOH   0.0600 
4109 H       14.8855    -6.8916    -7.3534 H     685 MOH   0.0600 
4110 H       13.2841    -7.6223    -5.8100 H     685 MOH   0.4180 
4111 O       14.9553     8.8276   -15.4429 O.3   686 MOH  -0.6830 
4112 C       13.9641     8.8619   -16.4497 C.3   686 MOH   0.0850 
4113 H       13.2933     9.7079   -16.2979 H     686 MOH   0.0600 
4114 H       13.3710     7.9484   -16.4269 H     686 MOH   0.0600 
4115 H       14.4174     8.9530   -17.4367 H     686 MOH   0.0600 
4116 H       14.5101     8.6957   -14.6013 H     686 MOH   0.4180 
4117 O       24.0460    -1.6313    -4.0554 O.3   687 MOH  -0.6830 
4118 C       24.5260    -2.9527    -3.8935 C.3   687 MOH   0.0850 
4119 H       24.5512    -3.2269    -2.8378 H     687 MOH   0.0600 
4120 H       25.5346    -3.0482    -4.2966 H     687 MOH   0.0600 
4121 H       23.8824    -3.6608    -4.4167 H     687 MOH   0.0600 
4122 H       24.6168    -1.0382    -3.5588 H     687 MOH   0.4180 
4123 O       17.8290     4.3797    -7.7604 O.3   688 MOH  -0.6830 
4124 C       17.7405     4.7571    -6.3983 C.3   688 MOH   0.0850 
4125 H       17.7515     5.8433    -6.2988 H     688 MOH   0.0600 
4126 H       18.5809     4.3533    -5.8326 H     688 MOH   0.0600 
4127 H       16.8183     4.3839    -5.9514 H     688 MOH   0.0600 
4128 H       17.0443     4.7127    -8.2106 H     688 MOH   0.4180 
4129 O       20.3538     2.4568   -11.9183 O.3   689 MOH  -0.6830 
4130 C       21.6987     2.5264   -12.3543 C.3   689 MOH   0.0850 
4131 H       21.8030     3.2042   -13.2026 H     689 MOH   0.0600 
4132 H       22.0504     1.5401   -12.6587 H     689 MOH   0.0600 
4133 H       22.3405     2.8839   -11.5483 H     689 MOH   0.0600 
4134 H       20.3362     1.8635   -11.1574 H     689 MOH   0.4180 
4135 O       19.2299     3.9607   -13.9463 O.3   690 MOH  -0.6830 
4136 C       17.8542     4.1832   -13.7134 C.3   690 MOH   0.0850 
4137 H       17.3207     3.2347   -13.6430 H     690 MOH   0.0600 
4138 H       17.4181     4.7639   -14.5262 H     690 MOH   0.0600 
4139 H       17.7070     4.7289   -12.7809 H     690 MOH   0.0600 
4140 H       19.5746     3.4305   -13.2154 H     690 MOH   0.4180 
4141 O       16.5543     5.5455    -0.4007 O.3   691 MOH  -0.6830 
4142 C       16.5699     4.1304    -0.3181 C.3   691 MOH   0.0850 
4143 H       17.5923     3.7514    -0.3167 H     691 MOH   0.0600 
4144 H       16.0420     3.6972    -1.1679 H     691 MOH   0.0600 
4145 H       16.0734     3.7910     0.5924 H     691 MOH   0.0600 
4146 H       15.6180     5.7917    -0.4424 H     691 MOH   0.4180 
4147 O       17.9454    11.4331    -2.2533 O.3   692 MOH  -0.6830 
4148 C       17.0643    12.4661    -1.8470 C.3   692 MOH   0.0850 
4149 H       16.3353    12.0885    -1.1294 H     692 MOH   0.0600 
4150 H       16.5205    12.8700    -2.7022 H     692 MOH   0.0600 
4151 H       17.6141    13.2803    -1.3745 H     692 MOH   0.0600 
4152 H       18.5836    11.7944    -2.8885 H     692 MOH   0.4180 
4153 O       24.3497    -1.4753    -8.6655 O.3   693 MOH  -0.6830 
4154 C       23.1926    -1.3269    -9.4656 C.3   693 MOH   0.0850 
4155 H       23.3098    -0.4986   -10.1650 H     693 MOH   0.0600 
4156 H       22.3239    -1.1210    -8.8411 H     693 MOH   0.0600 
4157 H       22.9955    -2.2335   -10.0379 H     693 MOH   0.0600 
4158 H       24.4604    -0.6604    -8.1622 H     693 MOH   0.4180 
4159 O       20.6695    15.5180     1.2041 O.3   694 MOH  -0.6830 
4160 C       19.3008    15.2146     1.0338 C.3   694 MOH   0.0850 
4161 H       18.6749    16.0624     1.3125 H     694 MOH   0.0600 
4162 H       19.0236    14.3610     1.6520 H     694 MOH   0.0600 
4163 H       19.0981    14.9659    -0.0076 H     694 MOH   0.0600 
4164 H       21.1621    14.7265     0.9955 H     694 MOH   0.4180 
4165 O       11.9332     6.6408    -9.2698 O.3   695 MOH  -0.6830 
4166 C       10.8597     5.8461    -8.7970 C.3   695 MOH   0.0850 
4167 H       11.2289     5.0756    -8.1192 H     695 MOH   0.0600 
4168 H       10.3448     5.3560    -9.6250 H     695 MOH   0.0600 
4169 H       10.1324     6.4544    -8.2602 H     695 MOH   0.0600 
4170 H       12.5171     6.0640    -9.7721 H     695 MOH   0.4180 
4171 O       22.0961    14.7479   -17.7345 O.3   696 MOH  -0.6830 
4172 C       21.2354    15.3297   -16.7731 C.3   696 MOH   0.0850 
4173 H       20.1915    15.2125   -17.0681 H     696 MOH   0.0600 
4174 H       21.4450    16.3953   -16.6695 H     696 MOH   0.0600 
4175 H       21.3734    14.8561   -15.8002 H     696 MOH   0.0600 
4176 H       23.0058    14.8752   -17.4316 H     696 MOH   0.4180 
4177 O       19.8239     5.9459    -8.8246 O.3   697 MOH  -0.6830 
4178 C       20.1076     5.5641   -10.1563 C.3   697 MOH   0.0850 
4179 H       19.1884     5.4853   -10.7377 H     697 MOH   0.0600 
4180 H       20.6090     4.5964   -10.1788 H     697 MOH   0.0600 
4181 H       20.7569     6.2970   -10.6355 H     697 MOH   0.0600 
4182 H       19.2156     5.2946    -8.4554 H     697 MOH   0.4180 
4183 O       21.4327    12.0786   -18.0766 O.3   698 MOH  -0.6830 
4184 C       20.0327    11.9229   -18.2095 C.3   698 MOH   0.0850 
4185 H       19.7744    10.8786   -18.3888 H     698 MOH   0.0600 
4186 H       19.6547    12.5143   -19.0444 H     698 MOH   0.0600 
4187 H       19.5225    12.2500   -17.3030 H     698 MOH   0.0600 
4188 H       21.6169    13.0133   -17.9333 H     698 MOH   0.4180 
4189 O       20.8237    15.7741    19.9729 O.3   699 MOH  -0.6830 
4190 C       21.0135    14.8787    18.8940 C.3   699 MOH   0.0850 
4191 H       20.5838    13.9027    19.1209 H     699 MOH   0.0600 
4192 H       22.0762    14.7433    18.6888 H     699 MOH   0.0600 
4193 H       20.5347    15.2585    17.9910 H     699 MOH   0.0600 
4194 H       21.2842    15.4196    20.7365 H     699 MOH   0.4180 
4195 O       15.2883    14.7288    -8.4578 O.3   700 MOH  -0.6830 
4196 C       14.0635    14.6716    -9.1648 C.3   700 MOH   0.0850 
4197 H       13.6950    13.6473    -9.2079 H     700 MOH   0.0600 
4198 H       14.1995    15.0346   -10.1836 H     700 MOH   0.0600 
4199 H       13.3078    15.2894    -8.6783 H     700 MOH   0.0600 
4200 H       15.5254    15.6667    -8.3671 H     700 MOH   0.4180 
4201 O        9.1212    14.7026   -11.6120 O.3   701 MOH  -0.6830 
4202 C        8.6063    13.8584   -10.5968 C.3   701 MOH   0.0850 
4203 H        9.4143    13.3344   -10.0857 H     701 MOH   0.0600 
4204 H        7.9293    13.1141   -11.0150 H     701 MOH   0.0600 
4205 H        8.0539    14.4366    -9.8552 H     701 MOH   0.0600 
4206 H        9.6337    14.1556   -12.2213 H     701 MOH   0.4180 
4207 O       11.7712     5.6269     6.9015 O.3   702 MOH  -0.6830 
4208 C       10.9335     5.4279     5.7807 C.3   702 MOH   0.0850 
4209 H       10.8671     4.3698     5.5260 H     702 MOH   0.0600 
4210 H       11.3208     5.9671     4.9162 H     702 MOH   0.0600 
4211 H        9.9276     5.7883     5.9887 H     702 MOH   0.0600 
4212 H       11.4979     5.0177     7.5982 H     702 MOH   0.4180 
4213 O       15.9110     9.4962     4.3171 O.3   703 MOH  -0.6830 
4214 C       15.1422     9.6892     3.1462 C.3   703 MOH   0.0850 
4215 H       15.5498     9.1098     2.3195 H     703 MOH   0.0600 
4216 H       15.1424    10.7402     2.8560 H     703 MOH   0.0600 
4217 H       14.1089     9.3803     3.3083 H     703 MOH   0.0600 
4218 H       15.5068    10.0252     5.0091 H     703 MOH   0.4180 
4219 O       13.9832     4.1582    16.7548 O.3   704 MOH  -0.6830 
4220 C       14.4930     4.2331    18.0712 C.3   704 MOH   0.0850 
4221 H       14.0357     5.0625    18.6111 H     704 MOH   0.0600 
4222 H       15.5716     4.3929    18.0628 H     704 MOH   0.0600 
4223 H       14.2870     3.3097    18.6128 H     704 MOH   0.0600 
4224 H       14.1284     5.0175    16.3353 H     704 MOH   0.4180 
4225 O       14.6599    11.3086     5.9940 O.3   705 MOH  -0.6830 
4226 C       14.9040    11.5292     7.3720 C.3   705 MOH   0.0850 
4227 H       15.9752    11.5728     7.5740 H     705 MOH   0.0600 
4228 H       14.4603    12.4726     7.6932 H     705 MOH   0.0600 
4229 H       14.4754    10.7262     7.9723 H     705 MOH   0.0600 
4230 H       15.0573    12.0407     5.5057 H     705 MOH   0.4180 
4231 O       22.0561     8.6660    -1.2898 O.3   706 MOH  -0.6830 
4232 C       22.2657     8.7060     0.1086 C.3   706 MOH   0.0850 
4233 H       23.3260     8.6317     0.3505 H     706 MOH   0.0600 
4234 H       21.7428     7.8853     0.6002 H     706 MOH   0.0600 
4235 H       21.8833     9.6430     0.5137 H     706 MOH   0.0600 
4236 H       21.1146     8.8251    -1.4329 H     706 MOH   0.4180 
4237 O       10.3646     5.4208    20.0846 O.3   707 MOH  -0.6830 
4238 C       11.0736     5.8202    18.9273 C.3   707 MOH   0.0850 
4239 H       11.9909     6.3388    19.2046 H     707 MOH   0.0600 
4240 H       10.4685     6.4924    18.3177 H     707 MOH   0.0600 
4241 H       11.3357     4.9541    18.3183 H     707 MOH   0.0600 
4242 H        9.5343     5.0278    19.7868 H     707 MOH   0.4180 
4243 O        4.4462     4.5262    14.0359 O.3   708 MOH  -0.6830 
4244 C        3.1961     5.1341    14.3042 C.3   708 MOH   0.0850 
4245 H        2.3947     4.6203    13.7718 H     708 MOH   0.0600 
4246 H        3.2015     6.1773    13.9869 H     708 MOH   0.0600 
4247 H        2.9729     5.1034    15.3715 H     708 MOH   0.0600 
4248 H        4.3962     3.6015    14.3054 H     708 MOH   0.4180 
4249 O       17.0771    -6.8861    18.0359 O.3   709 MOH  -0.6830 
4250 C       18.2406    -7.6888    18.0020 C.3   709 MOH   0.0850 
4251 H       18.7178    -7.6424    17.0231 H     709 MOH   0.0600 
4252 H       17.9903    -8.7284    18.2174 H     709 MOH   0.0600 
4253 H       18.9571    -7.3502    18.7522 H     709 MOH   0.0600 
4254 H       16.7260    -6.9463    18.9345 H     709 MOH   0.4180 
4255 O       20.2202    13.0805    15.5543 O.3   710 MOH  -0.6830 
4256 C       21.5895    12.9174    15.8740 C.3   710 MOH   0.0850 
4257 H       22.1264    13.8605    15.7652 H     710 MOH   0.0600 
4258 H       22.0520    12.1803    15.2167 H     710 MOH   0.0600 
4259 H       21.7071    12.5768    16.9038 H     710 MOH   0.0600 
4260 H       20.1472    13.3321    14.6287 H     710 MOH   0.4180 
4261 O       16.3672    15.6430    -0.3807 O.3   711 MOH  -0.6830 
4262 C       15.8738    16.9577    -0.2087 C.3   711 MOH   0.0850 
4263 H       15.2958    17.0446     0.7107 H     711 MOH   0.0600 
4264 H       15.2320    17.2415    -1.0431 H     711 MOH   0.0600 
4265 H       16.6970    17.6708    -0.1600 H     711 MOH   0.0600 
4266 H       16.9344    15.6588    -1.1614 H     711 MOH   0.4180 
4267 O       19.5693    -1.7483    -9.3698 O.3   712 MOH  -0.6830 
4268 C       19.8841    -3.1265    -9.3950 C.3   712 MOH   0.0850 
4269 H       19.7836    -3.5289   -10.4032 H     712 MOH   0.0600 
4270 H       19.2124    -3.6797    -8.7388 H     712 MOH   0.0600 
4271 H       20.9065    -3.2994    -9.0603 H     712 MOH   0.0600 
4272 H       18.6141    -1.6642    -9.4780 H     712 MOH   0.4180 
4273 O        6.8875     7.9092    13.3711 O.3   713 MOH  -0.6830 
4274 C        6.0325     7.9987    14.4939 C.3   713 MOH   0.0850 
4275 H        6.2664     8.8814    15.0868 H     713 MOH   0.0600 
4276 H        6.1427     7.1180    15.1284 H     713 MOH   0.0600 
4277 H        4.9909     8.0660    14.1772 H     713 MOH   0.0600 
4278 H        6.6560     7.0935    12.9048 H     713 MOH   0.4180 
4279 O       14.5624    13.3160    -6.2190 O.3   714 MOH  -0.6830 
4280 C       14.6156    11.9278    -6.4825 C.3   714 MOH   0.0850 
4281 H       15.6244    11.6289    -6.7642 H     714 MOH   0.0600 
4282 H       13.9428    11.6622    -7.2987 H     714 MOH   0.0600 
4283 H       14.3280    11.3590    -5.5989 H     714 MOH   0.0600 
4284 H       14.8344    13.7802    -7.0199 H     714 MOH   0.4180 
4285 O        4.6224    11.0853    14.1660 O.3   715 MOH  -0.6830 
4286 C        3.7089    12.1020    14.5191 C.3   715 MOH   0.0850 
4287 H        2.8367    12.0605    13.8677 H     715 MOH   0.0600 
4288 H        4.1672    13.0862    14.4186 H     715 MOH   0.0600 
4289 H        3.3770    11.9835    15.5507 H     715 MOH   0.0600 
4290 H        5.4273    11.2215    14.6799 H     715 MOH   0.4180 
4291 O       17.6696     1.5386     8.6862 O.3   716 MOH  -0.6830 
4292 C       17.4022     0.1556     8.8175 C.3   716 MOH   0.0850 
4293 H       16.3674    -0.0556     8.5460 H     716 MOH   0.0600 
4294 H       17.5506    -0.1648     9.8490 H     716 MOH   0.0600 
4295 H       18.0567    -0.4352     8.1759 H     716 MOH   0.0600 
4296 H       17.0965     1.9892     9.3215 H     716 MOH   0.4180 
4297 O       13.6766     2.1902    14.8405 O.3   717 MOH  -0.6830 
4298 C       14.9909     2.0982    14.3212 C.3   717 MOH   0.0850 
4299 H       15.6788     1.7244    15.0810 H     717 MOH   0.0600 
4300 H       15.3409     3.0793    13.9985 H     717 MOH   0.0600 
4301 H       15.0303     1.4261    13.4637 H     717 MOH   0.0600 
4302 H       13.7126     2.7820    15.6040 H     717 MOH   0.4180 
4303 O       14.2110    15.7159     7.4726 O.3   718 MOH  -0.6830 
4304 C       14.2425    17.0641     7.0464 C.3   718 MOH   0.0850 
4305 H       13.2304    17.4616     6.9635 H     718 MOH   0.0600 
4306 H       14.7213    17.1484     6.0702 H     718 MOH   0.0600 
4307 H       14.7983    17.6797     7.7541 H     718 MOH   0.0600 
4308 H       13.7205    15.2125     6.8093 H     718 MOH   0.4180 
4309 O       24.2938     7.6903     7.8873 O.3   719 MOH  -0.6830 
4310 C       23.2584     8.5093     7.3767 C.3   719 MOH   0.0850 
4311 H       23.3953     9.5465     7.6839 H     719 MOH   0.0600 
4312 H       22.2859     8.1706     7.7364 H     719 MOH   0.0600 
4313 H       23.2473     8.4734     6.2871 H     719 MOH   0.0600 
4314 H       24.1282     6.7948     7.5793 H     719 MOH   0.4180 
4315 O       11.9514     1.8573    12.7308 O.3   720 MOH  -0.6830 
4316 C       10.6265     1.6586    13.1837 C.3   720 MOH   0.0850 
4317 H       10.5629     0.7606    13.7995 H     720 MOH   0.0600 
4318 H        9.9435     1.5456    12.3403 H     720 MOH   0.0600 
4319 H       10.2972     2.5081    13.7831 H     720 MOH   0.0600 
4320 H       12.5240     1.9364    13.5062 H     720 MOH   0.4180 
4321 O       14.7476    13.6702    13.4143 O.3   721 MOH  -0.6830 
4322 C       14.3775    13.2181    14.7022 C.3   721 MOH   0.0850 
4323 H       15.0733    13.5934    15.4536 H     721 MOH   0.0600 
4324 H       14.3891    12.1280    14.7418 H     721 MOH   0.0600 
4325 H       13.3747    13.5620    14.9581 H     721 MOH   0.0600 
4326 H       15.6370    13.3394    13.2384 H     721 MOH   0.4180 
4327 O       15.6246    13.3826     4.4415 O.3   722 MOH  -0.6830 
4328 C       16.5202    14.2395     5.1272 C.3   722 MOH   0.0850 
4329 H       16.1384    15.2609     5.1527 H     722 MOH   0.0600 
4330 H       17.4841    14.2591     4.6202 H     722 MOH   0.0600 
4331 H       16.6795    13.9070     6.1532 H     722 MOH   0.0600 
4332 H       15.6332    13.6585     3.5118 H     722 MOH   0.4180 
4333 O       11.6631     9.0884    17.7841 O.3   723 MOH  -0.6830 
4334 C       13.0232     8.9366    18.1400 C.3   723 MOH   0.0850 
4335 H       13.3556     7.9124    17.9674 H     723 MOH   0.0600 
4336 H       13.1739     9.1707    19.1940 H     723 MOH   0.0600 
4337 H       13.6547     9.6000    17.5479 H     723 MOH   0.0600 
4338 H       11.5448     8.6914    16.9097 H     723 MOH   0.4180 
4339 O       13.2569    -2.1725    11.8631 O.3   724 MOH  -0.6830 
4340 C       13.1874    -1.2764    12.9541 C.3   724 MOH   0.0850 
4341 H       13.7626    -1.6507    13.8014 H     724 MOH   0.0600 
4342 H       12.1539    -1.1430    13.2743 H     724 MOH   0.0600 
4343 H       13.5892    -0.3042    12.6721 H     724 MOH   0.0600 
4344 H       12.9844    -3.0430    12.1775 H     724 MOH   0.4180 
4345 O       25.8192    -1.9031    12.1416 O.3   725 MOH  -0.6830 
4346 C       24.7570    -1.7240    11.2219 C.3   725 MOH   0.0850 
4347 H       23.7933    -1.7618    11.7315 H     725 MOH   0.0600 
4348 H       24.7677    -2.5036    10.4594 H     725 MOH   0.0600 
4349 H       24.8395    -0.7579    10.7225 H     725 MOH   0.0600 
4350 H       25.7769    -1.1874    12.7900 H     725 MOH   0.4180 
4351 O        9.1065     8.9463    18.7795 O.3   726 MOH  -0.6830 
4352 C        9.1350     9.0202    20.1910 C.3   726 MOH   0.0850 
4353 H        9.5112     9.9910    20.5163 H     726 MOH   0.0600 
4354 H        9.7882     8.2471    20.5965 H     726 MOH   0.0600 
4355 H        8.1359     8.8801    20.6047 H     726 MOH   0.0600 
4356 H       10.0161     9.0429    18.4686 H     726 MOH   0.4180 
4357 O       12.4031    18.0168    14.2896 O.3   727 MOH  -0.6830 
4358 C       13.0266    16.7896    13.9660 C.3   727 MOH   0.0850 
4359 H       13.2633    16.7469    12.9024 H     727 MOH   0.0600 
4360 H       12.3695    15.9519    14.2018 H     727 MOH   0.0600 
4361 H       13.9521    16.6684    14.5300 H     727 MOH   0.0600 
4362 H       11.5753    18.0651    13.8119 H     727 MOH   0.4180 
4363 O       20.9186     4.7627    16.3833 O.3   728 MOH  -0.6830 
4364 C       20.8225     6.1129    16.7884 C.3   728 MOH   0.0850 
4365 H       21.7536     6.4423    17.2502 H     728 MOH   0.0600 
4366 H       20.0151     6.2381    17.5108 H     728 MOH   0.0600 
4367 H       20.6165     6.7534    15.9300 H     728 MOH   0.0600 
4368 H       20.0791     4.5210    15.9687 H     728 MOH   0.4180 
4369 O       19.5622    11.5929     2.0835 O.3   729 MOH  -0.6830 
4370 C       18.1528    11.6375     2.2057 C.3   729 MOH   0.0850 
4371 H       17.7043    12.1534     1.3557 H     729 MOH   0.0600 
4372 H       17.8603    12.1600     3.1167 H     729 MOH   0.0600 
4373 H       17.7412    10.6294     2.2516 H     729 MOH   0.0600 
4374 H       19.9005    11.0416     2.8036 H     729 MOH   0.4180 
4375 O        7.8579    15.8246     7.4618 O.3   730 MOH  -0.6830 
4376 C        8.6817    15.4545     8.5513 C.3   730 MOH   0.0850 
4377 H        8.2742    14.5832     9.0646 H     730 MOH   0.0600 
4378 H        8.7593    16.2707     9.2712 H     730 MOH   0.0600 
4379 H        9.6869    15.2102     8.2051 H     730 MOH   0.0600 
4380 H        8.2643    16.5889     7.0403 H     730 MOH   0.4180 
4381 O        7.9519     4.5263    19.1708 O.3   731 MOH  -0.6830 
4382 C        6.9756     4.4683    20.1903 C.3   731 MOH   0.0850 
4383 H        7.1524     3.6203    20.8511 H     731 MOH   0.0600 
4384 H        5.9771     4.3708    19.7634 H     731 MOH   0.0600 
4385 H        7.0039     5.3836    20.7815 H     731 MOH   0.0600 
4386 H        7.7292     5.2796    18.6087 H     731 MOH   0.4180 
4387 O       23.0814     3.4187    15.3924 O.3   732 MOH  -0.6830 
4388 C       24.1484     3.5566    16.3075 C.3   732 MOH   0.0850 
4389 H       24.3815     4.6096    16.4659 H     732 MOH   0.0600 
4390 H       25.0423     3.0598    15.9311 H     732 MOH   0.0600 
4391 H       23.8858     3.1123    17.2678 H     732 MOH   0.0600 
4392 H       22.3205     3.8946    15.7461 H     732 MOH   0.4180 
4393 O        3.1151     6.6825    20.0180 O.3   733 MOH  -0.6830 
4394 C        3.2472     7.9460    20.6446 C.3   733 MOH   0.0850 
4395 H        3.6271     8.6856    19.9384 H     733 MOH   0.0600 
4396 H        3.9372     7.8909    21.4868 H     733 MOH   0.0600 
4397 H        2.2820     8.2961    21.0133 H     733 MOH   0.0600 
4398 H        2.5436     6.8010    19.2489 H     733 MOH   0.4180 
4399 O       24.5780    12.9194     7.4162 O.3   734 MOH  -0.6830 
4400 C       23.8069    12.7107     6.2511 C.3   734 MOH   0.0850 
4401 H       23.2546    13.6153     5.9931 H     734 MOH   0.0600 
4402 H       23.0886    11.9062     6.4130 H     734 MOH   0.0600 
4403 H       24.4444    12.4433     5.4078 H     734 MOH   0.0600 
4404 H       23.9676    13.1195     8.1321 H     734 MOH   0.4180 
4405 O       16.3506    14.6063     8.8078 O.3   735 MOH  -0.6830 
4406 C       17.3026    15.6478     8.8842 C.3   735 MOH   0.0850 
4407 H       17.6201    15.9438     7.8852 H     735 MOH   0.0600 
4408 H       18.1804    15.3352     9.4485 H     735 MOH   0.0600 
4409 H       16.8722    16.5205     9.3759 H     735 MOH   0.0600 
4410 H       15.5880    14.9556     8.3326 H     735 MOH   0.4180 
4411 O        2.7688    16.2395     0.5543 O.3   736 MOH  -0.6830 
4412 C        2.3109    15.0063     1.0794 C.3   736 MOH   0.0850 
4413 H        1.5916    14.5389     0.4061 H     736 MOH   0.0600 
4414 H        1.8278    15.1675     2.0431 H     736 MOH   0.0600 
4415 H        3.1366    14.3098     1.2288 H     736 MOH   0.0600 
4416 H        3.3392    16.6446     1.2170 H     736 MOH   0.4180 
4417 O       16.7193    10.3930    14.5376 O.3   737 MOH  -0.6830 
4418 C       17.1611    10.7204    15.8424 C.3   737 MOH   0.0850 
4419 H       18.2259    10.9568    15.8395 H     737 MOH   0.0600 
4420 H       16.9973     9.8902    16.5296 H     737 MOH   0.0600 
4421 H       16.6216    11.5866    16.2257 H     737 MOH   0.0600 
4422 H       16.9337    11.1327    13.9631 H     737 MOH   0.4180 
4423 O       22.9800    13.6269     9.5759 O.3   738 MOH  -0.6830 
4424 C       22.9215    15.0008     9.2275 C.3   738 MOH   0.0850 
4425 H       22.2018    15.1690     8.4244 H     738 MOH   0.0600 
4426 H       23.8984    15.3524     8.8913 H     738 MOH   0.0600 
4427 H       22.6265    15.6041    10.0866 H     738 MOH   0.0600 
4428 H       23.6345    13.5380    10.2858 H     738 MOH   0.4180 
4429 O       17.2495    12.6006    12.9063 O.3   739 MOH  -0.6830 
4430 C       17.0620    12.3116    11.5329 C.3   739 MOH   0.0850 
4431 H       17.7347    11.5138    11.2209 H     739 MOH   0.0600 
4432 H       17.2704    13.1918    10.9251 H     739 MOH   0.0600 
4433 H       16.0397    11.9963    11.3286 H     739 MOH   0.0600 
4434 H       18.1303    12.9836    12.9957 H     739 MOH   0.4180 
4435 O       26.6731    13.8185     9.0271 O.3   740 MOH  -0.6830 
4436 C       27.9921    14.0600     8.5712 C.3   740 MOH   0.0850 
4437 H       28.0072    14.8612     7.8312 H     740 MOH   0.0600 
4438 H       28.4133    13.1645     8.1130 H     740 MOH   0.0600 
4439 H       28.6385    14.3527     9.3997 H     740 MOH   0.0600 
4440 H       26.1346    13.5468     8.2774 H     740 MOH   0.4180 
4441 O       -4.6365     9.4457    14.0879 O.3   741 MOH  -0.6830 
4442 C       -4.4402    10.1211    12.8595 C.3   741 MOH   0.0850 
4443 H       -4.8624     9.5450    12.0359 H     741 MOH   0.0600 
4444 H       -3.3778    10.2696    12.6623 H     741 MOH   0.0600 
4445 H       -4.9243    11.0982    12.8772 H     741 MOH   0.0600 
4446 H       -5.5867     9.3453    14.2198 H     741 MOH   0.4180 
4447 O       19.6736    13.9379    12.9618 O.3   742 MOH  -0.6830 
4448 C       20.9294    14.1514    12.3472 C.3   742 MOH   0.0850 
4449 H       20.7948    14.5921    11.3596 H     742 MOH   0.0600 
4450 H       21.4728    13.2124    12.2350 H     742 MOH   0.0600 
4451 H       21.5375    14.8336    12.9428 H     742 MOH   0.0600 
4452 H       19.2135    14.7937    12.9831 H     742 MOH   0.4180 
4453 O        6.3640     6.4715     7.9440 O.3   743 MOH  -0.6830 
4454 C        7.6585     7.0095     7.7418 C.3   743 MOH   0.0850 
4455 H        7.6758     8.0781     7.9608 H     743 MOH   0.0600 
4456 H        7.9742     6.8693     6.7084 H     743 MOH   0.0600 
4457 H        8.3838     6.5230     8.3928 H     743 MOH   0.0600 
4458 H        6.4163     5.5124     7.8723 H     743 MOH   0.4180 
4459 O        7.5164    14.8519    22.4502 O.3   744 MOH  -0.6830 
4460 C        8.3701    15.5352    21.5508 C.3   744 MOH   0.0850 
4461 H        8.2062    15.1894    20.5295 H     744 MOH   0.0600 
4462 H        9.4169    15.3658    21.8066 H     744 MOH   0.0600 
4463 H        8.1822    16.6095    21.5811 H     744 MOH   0.0600 
4464 H        7.6994    13.9087    22.3904 H     744 MOH   0.4180 
4465 O        6.9528    11.5566    15.5424 O.3   745 MOH  -0.6830 
4466 C        7.1695    11.0163    16.8310 C.3   745 MOH   0.0850 
4467 H        7.7192    10.0777    16.7585 H     745 MOH   0.0600 
4468 H        6.2217    10.8219    17.3333 H     745 MOH   0.0600 
4469 H        7.7509    11.7048    17.4455 H     745 MOH   0.0600 
4470 H        7.8161    11.7490    15.1625 H     745 MOH   0.4180 
4471 O        5.5607    12.5685    24.4836 O.3   746 MOH  -0.6830 
4472 C        4.4791    12.4085    23.5856 C.3   746 MOH   0.0850 
4473 H        4.3281    11.3562    23.3419 H     746 MOH   0.0600 
4474 H        4.6656    12.9555    22.6603 H     746 MOH   0.0600 
4475 H        3.5598    12.7909    24.0272 H     746 MOH   0.0600 
4476 H        5.6401    13.5103    24.6798 H     746 MOH   0.4180 
4477 O       16.0693     9.3693    19.1444 O.3   747 MOH  -0.6830 
4478 C       16.1283     8.0743    19.7075 C.3   747 MOH   0.0850 
4479 H       17.1508     7.8263    19.9950 H     747 MOH   0.0600 
4480 H       15.7814     7.3271    18.9936 H     747 MOH   0.0600 
4481 H       15.4977     8.0140    20.5942 H     747 MOH   0.0600 
4482 H       16.4394     9.9912    19.7808 H     747 MOH   0.4180 
4483 O       23.9929    11.4968     0.5343 O.3   748 MOH  -0.6830 
4484 C       24.3803    11.5893    -0.8244 C.3   748 MOH   0.0850 
4485 H       25.3179    11.0639    -1.0044 H     748 MOH   0.0600 
4486 H       24.5113    12.6330    -1.1117 H     748 MOH   0.0600 
4487 H       23.6179    11.1514    -1.4699 H     748 MOH   0.0600 
4488 H       23.1662    11.9832     0.6238 H     748 MOH   0.4180 
4489 O       20.6884    10.1373     4.0806 O.3   749 MOH  -0.6830 
4490 C       22.0669     9.9776     3.8024 C.3   749 MOH   0.0850 
4491 H       22.6649    10.6620     4.4025 H     749 MOH   0.0600 
4492 H       22.2806    10.1778     2.7531 H     749 MOH   0.0600 
4493 H       22.3881     8.9617     4.0295 H     749 MOH   0.0600 
4494 H       20.5705    10.0740     5.0381 H     749 MOH   0.4180 
4495 O       19.4032    -3.2948    10.3719 O.3   750 MOH  -0.6830 
4496 C       19.9154    -4.4004    11.0911 C.3   750 MOH   0.0850 
4497 H       20.7169    -4.8849    10.5328 H     750 MOH   0.0600 
4498 H       19.1308    -5.1351    11.2782 H     750 MOH   0.0600 
4499 H       20.3159    -4.0763    12.0522 H     750 MOH   0.0600 
4500 H       18.6764    -2.9253    10.8842 H     750 MOH   0.4180 
4501 O       14.3104   -10.7805    19.2502 O.3   751 MOH  -0.6830 
4502 C       14.2831    -9.3666    19.2009 C.3   751 MOH   0.0850 
4503 H       15.0416    -8.9871    18.5154 H     751 MOH   0.0600 
4504 H       14.4755    -8.9483    20.1895 H     751 MOH   0.0600 
4505 H       13.3069    -9.0128    18.8674 H     751 MOH   0.0600 
4506 H       13.6458   -11.0584    19.8879 H     751 MOH   0.4180 
4507 O       24.5951     8.6279    -2.3563 O.3   752 MOH  -0.6830 
4508 C       25.3282     7.5428    -1.8207 C.3   752 MOH   0.0850 
4509 H       25.4521     7.6578    -0.7437 H     752 MOH   0.0600 
4510 H       26.3181     7.4804    -2.2746 H     752 MOH   0.0600 
4511 H       24.8059     6.6029    -2.0020 H     752 MOH   0.0600 
4512 H       23.7340     8.6468    -1.9183 H     752 MOH   0.4180 
4513 O       23.5512     9.0337    -4.8771 O.3   753 MOH  -0.6830 
4514 C       22.6212     7.9691    -4.9292 C.3   753 MOH   0.0850 
4515 H       21.9053     8.0482    -4.1101 H     753 MOH   0.0600 
4516 H       23.1357     7.0119    -4.8412 H     753 MOH   0.0600 
4517 H       22.0712     7.9780    -5.8700 H     753 MOH   0.0600 
4518 H       24.0326     8.9543    -4.0446 H     753 MOH   0.4180 
4519 O       18.7679     0.0052    12.7439 O.3   754 MOH  -0.6830 
4520 C       19.9799    -0.1214    12.0188 C.3   754 MOH   0.0850 
4521 H       19.7892    -0.1010    10.9451 H     754 MOH   0.0600 
4522 H       20.4719    -1.0656    12.2575 H     754 MOH   0.0600 
4523 H       20.6680     0.6897    12.2590 H     754 MOH   0.0600 
4524 H       18.2212    -0.7548    12.5058 H     754 MOH   0.4180 
4525 O       19.0518    18.4913    -2.2667 O.3   755 MOH  -0.6830 
4526 C       19.4753    18.5806    -0.9200 C.3   755 MOH   0.0850 
4527 H       18.8112    19.2356    -0.3549 H     755 MOH   0.0600 
4528 H       20.4861    18.9851    -0.8640 H     755 MOH   0.0600 
4529 H       19.4758    17.5989    -0.4484 H     755 MOH   0.0600 
4530 H       19.1279    19.3769    -2.6444 H     755 MOH   0.4180 
4531 O       17.9620     2.6281    12.8057 O.3   756 MOH  -0.6830 
4532 C       18.9407     3.3209    12.0487 C.3   756 MOH   0.0850 
4533 H       18.6898     4.3796    11.9723 H     756 MOH   0.0600 
4534 H       19.0100     2.9097    11.0402 H     756 MOH   0.0600 
4535 H       19.9214     3.2335    12.5193 H     756 MOH   0.0600 
4536 H       18.2229     1.6956    12.8221 H     756 MOH   0.4180 
4537 O       16.1307     2.6648    10.6317 O.3   757 MOH  -0.6830 
4538 C       14.9565     3.4537    10.6757 C.3   757 MOH   0.0850 
4539 H       14.2792     3.0953    11.4515 H     757 MOH   0.0600 
4540 H       14.4311     3.4100     9.7205 H     757 MOH   0.0600 
4541 H       15.1984     4.4969    10.8834 H     757 MOH   0.0600 
4542 H       16.5834     2.7360    11.4756 H     757 MOH   0.4180 
4543 O       25.9078     0.1704    13.9942 O.3   758 MOH  -0.6830 
4544 C       24.5625     0.5482    14.2203 C.3   758 MOH   0.0850 
4545 H       24.3760     1.5480    13.8265 H     758 MOH   0.0600 
4546 H       24.3406     0.5567    15.2882 H     758 MOH   0.0600 
4547 H       23.8744    -0.1443    13.7353 H     758 MOH   0.0600 
4548 H       26.4595     0.7684    14.5105 H     758 MOH   0.4180 
4549 O       11.1402     7.8745    15.3959 O.3   759 MOH  -0.6830 
4550 C        9.7638     7.6002    15.2096 C.3   759 MOH   0.0850 
4551 H        9.5730     6.5271    15.2471 H     759 MOH   0.0600 
4552 H        9.4366     7.9708    14.2383 H     759 MOH   0.0600 
4553 H        9.1600     8.0803    15.9800 H     759 MOH   0.0600 
4554 H       11.6163     7.4480    14.6750 H     759 MOH   0.4180 
4555 O       20.8269    12.4002     8.3791 O.3   760 MOH  -0.6830 
4556 C       19.7268    12.4217     9.2693 C.3   760 MOH   0.0850 
4557 H       18.8148    12.0827     8.7766 H     760 MOH   0.0600 
4558 H       19.5540    13.4323     9.6377 H     760 MOH   0.0600 
4559 H       19.9176    11.7745    10.1263 H     760 MOH   0.0600 
4560 H       21.5918    12.7530     8.8538 H     760 MOH   0.4180 
4561 O       18.5753     4.1277    15.1128 O.3   761 MOH  -0.6830 
4562 C       17.4043     4.7770    15.5640 C.3   761 MOH   0.0850 
4563 H       16.6742     4.0441    15.9058 H     761 MOH   0.0600 
4564 H       16.9548     5.3559    14.7565 H     761 MOH   0.0600 
4565 H       17.6263     5.4517    16.3908 H     761 MOH   0.0600 
4566 H       18.3322     3.5883    14.3538 H     761 MOH   0.4180 
4567 O       18.7888    16.4793     5.6000 O.3   762 MOH  -0.6830 
4568 C       19.4239    17.1309     4.5192 C.3   762 MOH   0.0850 
4569 H       18.8563    18.0118     4.2198 H     762 MOH   0.0600 
4570 H       19.5022    16.4632     3.6618 H     762 MOH   0.0600 
4571 H       20.4291    17.4459     4.7985 H     762 MOH   0.0600 
4572 H       19.3063    15.7014     5.8306 H     762 MOH   0.4180 
4573 O       21.4665    12.7785     0.5423 O.3   763 MOH  -0.6830 
4574 C       21.0417    12.5728    -0.7934 C.3   763 MOH   0.0850 
4575 H       20.0344    12.9598    -0.9418 H     763 MOH   0.0600 
4576 H       21.0286    11.5083    -1.0287 H     763 MOH   0.0600 
4577 H       21.7065    13.0742    -1.4973 H     763 MOH   0.0600 
4578 H       20.8024    12.3656     1.1137 H     763 MOH   0.4180 
4579 O       20.3547    10.1829     6.7933 O.3   764 MOH  -0.6830 
4580 C       19.0357     9.7058     7.0018 C.3   764 MOH   0.0850 
4581 H       18.8231     8.8547     6.3541 H     764 MOH   0.0600 
4582 H       18.3057    10.4865     6.7834 H     764 MOH   0.0600 
4583 H       18.8964     9.3903     8.0371 H     764 MOH   0.0600 
4584 H       20.5077    10.9109     7.4069 H     764 MOH   0.4180 
4585 O       20.1181    14.1133     6.2562 O.3   765 MOH  -0.6830 
4586 C       20.1335    13.3143     5.0874 C.3   765 MOH   0.0850 
4587 H       19.3741    12.5342     5.1495 H     765 MOH   0.0600 
4588 H       21.1019    12.8314     4.9603 H     765 MOH   0.0600 
4589 H       19.9372    13.9160     4.1990 H     765 MOH   0.0600 
4590 H       20.3134    13.5401     7.0021 H     765 MOH   0.4180 
4591 O       18.2369    16.2309    13.0493 O.3   766 MOH  -0.6830 
4592 C       16.8989    16.2004    12.5908 C.3   766 MOH   0.0850 
4593 H       16.7505    15.3994    11.8669 H     766 MOH   0.0600 
4594 H       16.6363    17.1468    12.1169 H     766 MOH   0.0600 
4595 H       16.2163    16.0401    13.4260 H     766 MOH   0.0600 
4596 H       18.2871    16.9306    13.7184 H     766 MOH   0.4180 
4597 O       10.3911    15.4640    11.8330 O.3   767 MOH  -0.6830 
4598 C        9.6395    14.5343    12.5898 C.3   767 MOH   0.0850 
4599 H       10.1022    14.3778    13.5651 H     767 MOH   0.0600 
4600 H        9.6007    13.5728    12.0777 H     767 MOH   0.0600 
4601 H        8.6192    14.8861    12.7455 H     767 MOH   0.0600 
4602 H       11.2507    15.0504    11.6679 H     767 MOH   0.4180 
@<TRIPOS>BOND
   1    1    2  1   
   2    1    6  1   
   3    2    3  1   
   4    2    4  1   
   5    2    5  1   
   6    7    8  1   
   7    7   12  1   
   8    8    9  1   
   9    8   10  1   
  10    8   11  1   
  11   13   14  1   
  12   13   18  1   
  13   14   15  1   
  14   14   16  1   
  15   14   17  1   
  16   19   20  1   
  17   19   24  1   
  18   20   21  1   
  19   20   22  1   
  20   20   23  1   
  21   25   26  1   
  22   25   30  1   
  23   26   27  1   
  24   26   28  1   
  25   26   29  1   
  26   31   32  1   
  27   31   36  1   
  28   32   33  1   
  29   32   34  1   
  30   32   35  1   
  31   37   38  1   
  32   37   42  1   
  33   38   39  1   
  34   38   40  1   
  35   38   41  1   
  36   43   44  1   
  37   43   48  1   
  38   44   45  1   
  39   44   46  1   
  40   44   47  1   
  41   49   50  1   
  42   49   54  1   
  43   50   51  1   
  44   50   52  1   
  45   50   53  1   
  46   55   56  1   
  47   55   60  1   
  48   56   57  1   
  49   56   58  1   
  50   56   59  1   
  51   61   62  1   
  52   61   66  1   
  53   62   63  1   
  54   62   64  1   
  55   62   65  1   
  56   67   68  1   
  57   67   72  1   
  58   68   69  1   
  59   68   70  1   
  60   68   71  1   
  61   73   74  1   
  62   73   78  1   
  63   74   75  1   
  64   74   76  1   
  65   74   77  1   
  66   79   80  1   
  67   79   84  1   
  68   80   81  1   
  69   80   82  1   
  70   80   83  1   
  71   85   86  1   
  72   85   90  1   
  73   86   87  1   
  74   86   88  1   
  75   86   89  1   
  76   91   92  1   
  77   91   96  1   
  78   92   93  1   
  79   92   94  1   
  80   92   95  1   
  81   97   98  1   
  82   97  102  1   
  83   98   99  1   
  84   98  100  1   
  85   98  101  1   
  86  103  104  1   
  87  103  108  1   
  88  104  105  1   
  89  104  106  1   
  90  104  107  1   
  91  109  110  1   
  92  109  114  1   
  93  110  111  1   
  94  110  112  1   
  95  110  113  1   
  96  115  116  1   
  97  115  120  1   
  98  116  117  1   
  99  116  118  1   
 100  116  119  1   
 101  121  122  1   
 102  121  126  1   
 103  122  123  1   
 104  122  124  1   
 105  122  125  1   
 106  127  128  1   
 107  127  132  1   
 108  128  129  1   
 109  128  130  1   
 110  128  131  1   
 111  133  134  1   
 112  133  138  1   
 113  134  135  1   
 114  134  136  1   
 115  134  137  1   
 116  139  140  1   
 117  139  144  1   
 118  140  141  1   
 119  140  142  1   
 120  140  143  1   
 121  145  146  1   
 122  145  150  1   
 123  146  147  1   
 124  146  148  1   
 125  146  149  1   
 126  151  152  1   
 127  151  156  1   
 128  152  153  1   
 129  152  154  1   
 130  152  155  1   
 131  157  158  1   
 132  157  162  1   
 133  158  159  1   
 134  158  160  1   
 135  158  161  1   
 136  163  164  1   
 137  163  168  1   
 138  164  165  1   
 139  164  166  1   
 140  164  167  1   
 141  169  170  1   
 142  169  174  1   
 143  170  171  1   
 144  170  172  1   
 145  170  173  1   
 146  175  176  1   
 147  175  180  1   
 148  176  177  1   
 149  176  178  1   
 150  176  179  1   
 151  181  182  1   
 152  181  186  1   
 153  182  183  1   
 154  182  184  1   
 155  182  185  1   
 156  187  188  1   
 157  187  192  1   
 158  188  189  1   
 159  188  190  1   
 160  188  191  1   
 161  193  194  1   
 162  193  198  1   
 163  194  195  1   
 164  194  196  1   
 165  194  197  1   
 166  199  200  1   
 167  199  204  1   
 168  200  201  1   
 169  200  202  1   
 170  200  203  1   
 171  205  206  1   
 172  205  210  1   
 173  206  207  1   
 174  206  208  1   
 175  206  209  1   
 176  211  212  1   
 177  211  216  1   
 178  212  213  1   
 179  212  214  1   
 180  212  215  1   
 181  217  218  1   
 182  217  222  1   
 183  218  219  1   
 184  218  220  1   
 185  218  221  1   
 186  223  224  1   
 187  223  228  1   
 188  224  225  1   
 189  224  226  1   
 190  224  227  1   
 191  229  230  1   
 192  229  234  1   
 193  230  231  1   
 194  230  232  1   
 195  230  233  1   
 196  235  236  1   
 197  235  240  1   
 198  236  237  1   
 199  236  238  1   
 200  236  239  1   
 201  241  242  1   
 202  241  246  1   
 203  242  243  1   
 204  242  244  1   
 205  242  245  1   
 206  247  248  1   
 207  247  252  1   
 208  248  249  1   
 209  248  250  1   
 210  248  251  1   
 211  253  254  1   
 212  253  258  1   
 213  254  255  1   
 214  254  256  1   
 215  254  257  1   
 216  259  260  1   
 217  259  264  1   
 218  260  261  1   
 219  260  262  1   
 220  260  263  1   
 221  265  266  1   
 222  265  270  1   
 223  266  267  1   
 224  266  268  1   
 225  266  269  1   
 226  271  272  1   
 227  271  276  1   
 228  272  273  1   
 229  272  274  1   
 230  272  275  1   
 231  277  278  1   
 232  277  282  1   
 233  278  279  1   
 234  278  280  1   
 235  278  281  1   
 236  283  284  1   
 237  283  288  1   
 238  284  285  1   
 239  284  286  1   
 240  284  287  1   
 241  289  290  1   
 242  289  294  1   
 243  290  291  1   
 244  290  292  1   
 245  290  293  1   
 246  295  296  1   
 247  295  300  1   
 248  296  297  1   
 249  296  298  1   
 250  296  299  1   
 251  301  302  1   
 252  301  306  1   
 253  302  303  1   
 254  302  304  1   
 255  302  305  1   
 256  307  308  1   
 257  307  312  1   
 258  308  309  1   
 259  308  310  1   
 260  308  311  1   
 261  313  314  1   
 262  313  318  1   
 263  314  315  1   
 264  314  316  1   
 265  314  317  1   
 266  319  320  1   
 267  319  324  1   
 268  320  321  1   
 269  320  322  1   
 270  320  323  1   
 271  325  326  1   
 272  325  330  1   
 273  326  327  1   
 274  326  328  1   
 275  326  329  1   
 276  331  332  1   
 277  331  336  1   
 278  332  333  1   
 279  332  334  1   
 280  332  335  1   
 281  337  338  1   
 282  337  342  1   
 283  338  339  1   
 284  338  340  1   
 285  338  341  1   
 286  343  344  1   
 287  343  348  1   
 288  344  345  1   
 289  344  346  1   
 290  344  347  1   
 291  349  350  1   
 292  349  354  1   
 293  350  351  1   
 294  350  352  1   
 295  350  353  1   
 296  355  356  1   
 297  355  360  1   
 298  356  357  1   
 299  356  358  1   
 300  356  359  1   
 301  361  362  1   
 302  361  366  1   
 303  362  363  1   
 304  362  364  1   
 305  362  365  1   
 306  367  368  1   
 307  367  372  1   
 308  368  369  1   
 309  368  370  1   
 310  368  371  1   
 311  373  374  1   
 312  373  378  1   
 313  374  375  1   
 314  374  376  1   
 315  374  377  1   
 316  379  380  1   
 317  379  384  1   
 318  380  381  1   
 319  380  382  1   
 320  380  383  1   
 321  385  386  1   
 322  385  390  1   
 323  386  387  1   
 324  386  388  1   
 325  386  389  1   
 326  391  392  1   
 327  391  396  1   
 328  392  393  1   
 329  392  394  1   
 330  392  395  1   
 331  397  398  1   
 332  397  402  1   
 333  398  399  1   
 334  398  400  1   
 335  398  401  1   
 336  403  404  1   
 337  403  408  1   
 338  404  405  1   
 339  404  406  1   
 340  404  407  1   
 341  409  410  1   
 342  409  414  1   
 343  410  411  1   
 344  410  412  1   
 345  410  413  1   
 346  415  416  1   
 347  415  420  1   
 348  416  417  1   
 349  416  418  1   
 350  416  419  1   
 351  421  422  1   
 352  421  426  1   
 353  422  423  1   
 354  422  424  1   
 355  422  425  1   
 356  427  428  1   
 357  427  432  1   
 358  428  429  1   
 359  428  430  1   
 360  428  431  1   
 361  433  434  1   
 362  433  438  1   
 363  434  435  1   
 364  434  436  1   
 365  434  437  1   
 366  439  440  1   
 367  439  444  1   
 368  440  441  1   
 369  440  442  1   
 370  440  443  1   
 371  445  446  1   
 372  445  450  1   
 373  446  447  1   
 374  446  448  1   
 375  446  449  1   
 376  451  452  1   
 377  451  456  1   
 378  452  453  1   
 379  452  454  1   
 380  452  455  1   
 381  457  458  1   
 382  457  462  1   
 383  458  459  1   
 384  458  460  1   
 385  458  461  1   
 386  463  464  1   
 387  463  468  1   
 388  464  465  1   
 389  464  466  1   
 390  464  467  1   
 391  469  470  1   
 392  469  474  1   
 393  470  471  1   
 394  470  472  1   
 395  470  473  1   
 396  475  476  1   
 397  475  480  1   
 398  476  477  1   
 399  476  478  1   
 400  476  479  1   
 401  481  482  1   
 402  481  486  1   
 403  482  483  1   
 404  482  484  1   
 405  482  485  1   
 406  487  488  1   
 407  487  492  1   
 408  488  489  1   
 409  488  490  1   
 410  488  491  1   
 411  493  494  1   
 412  493  498  1   
 413  494  495  1   
 414  494  496  1   
 415  494  497  1   
 416  499  500  1   
 417  499  504  1   
 418  500  501  1   
 419  500  502  1   
 420  500  503  1   
 421  505  506  1   
 422  505  510  1   
 423  506  507  1   
 424  506  508  1   
 425  506  509  1   
 426  511  512  1   
 427  511  516  1   
 428  512  513  1   
 429  512  514  1   
 430  512  515  1   
 431  517  518  1   
 432  517  522  1   
 433  518  519  1   
 434  518  520  1   
 435  518  521  1   
 436  523  524  1   
 437  523  528  1   
 438  524  525  1   
 439  524  526  1   
 440  524  527  1   
 441  529  530  1   
 442  529  534  1   
 443  530  531  1   
 444  530  532  1   
 445  530  533  1   
 446  535  536  1   
 447  535  540  1   
 448  536  537  1   
 449  536  538  1   
 450  536  539  1   
 451  541  542  1   
 452  541  546  1   
 453  542  543  1   
 454  542  544  1   
 455  542  545  1   
 456  547  548  1   
 457  547  552  1   
 458  548  549  1   
 459  548  550  1   
 460  548  551  1   
 461  553  554  1   
 462  553  558  1   
 463  554  555  1   
 464  554  556  1   
 465  554  557  1   
 466  559  560  1   
 467  559  564  1   
 468  560  561  1   
 469  560  562  1   
 470  560  563  1   
 471  565  566  1   
 472  565  570  1   
 473  566  567  1   
 474  566  568  1   
 475  566  569  1   
 476  571  572  1   
 477  571  576  1   
 478  572  573  1   
 479  572  574  1   
 480  572  575  1   
 481  577  578  1   
 482  577  582  1   
 483  578  579  1   
 484  578  580  1   
 485  578  581  1   
 486  583  584  1   
 487  583  588  1   
 488  584  585  1   
 489  584  586  1   
 490  584  587  1   
 491  589  590  1   
 492  589  594  1   
 493  590  591  1   
 494  590  592  1   
 495  590  593  1   
 496  595  596  1   
 497  595  600  1   
 498  596  597  1   
 499  596  598  1   
 500  596  599  1   
 501  601  602  1   
 502  601  606  1   
 503  602  603  1   
 504  602  604  1   
 505  602  605  1   
 506  607  608  1   
 507  607  612  1   
 508  608  609  1   
 509  608  610  1   
 510  608  611  1   
 511  613  614  1   
 512  613  618  1   
 513  614  615  1   
 514  614  616  1   
 515  614  617  1   
 516  619  620  1   
 517  619  624  1   
 518  620  621  1   
 519  620  622  1   
 520  620  623  1   
 521  625  626  1   
 522  625  630  1   
 523  626  627  1   
 524  626  628  1   
 525  626  629  1   
 526  631  632  1   
 527  631  636  1   
 528  632  633  1   
 529  632  634  1   
 530  632  635  1   
 531  637  638  1   
 532  637  642  1   
 533  638  639  1   
 534  638  640  1   
 535  638  641  1   
 536  643  644  1   
 537  643  648  1   
 538  644  645  1   
 539  644  646  1   
 540  644  647  1   
 541  649  650  1   
 542  649  654  1   
 543  650  651  1   
 544  650  652  1   
 545  650  653  1   
 546  655  656  1   
 547  655  660  1   
 548  656  657  1   
 549  656  658  1   
 550  656  659  1   
 551  661  662  1   
 552  661  666  1   
 553  662  663  1   
 554  662  664  1   
 555  662  665  1   
 556  667  668  1   
 557  667  672  1   
 558  668  669  1   
 559  668  670  1   
 560  668  671  1   
 561  673  674  1   
 562  673  678  1   
 563  674  675  1   
 564  674  676  1   
 565  674  677  1   
 566  679  680  1   
 567  679  684  1   
 568  680  681  1   
 569  680  682  1   
 570  680  683  1   
 571  685  686  1   
 572  685  690  1   
 573  686  687  1   
 574  686  688  1   
 575  686  689  1   
 576  691  692  1   
 577  691  696  1   
 578  692  693  1   
 579  692  694  1   
 580  692  695  1   
 581  697  698  1   
 582  697  702  1   
 583  698  699  1   
 584  698  700  1   
 585  698  701  1   
 586  703  704  1   
 587  703  708  1   
 588  704  705  1   
 589  704  706  1   
 590  704  707  1   
 591  709  710  1   
 592  709  714  1   
 593  710  711  1   
 594  710  712  1   
 595  710  713  1   
 596  715  716  1   
 597  715  720  1   
 598  716  717  1   
 599  716  718  1   
 600  716  719  1   
 601  721  722  1   
 602  721  726  1   
 603  722  723  1   
 604  722  724  1   
 605  722  725  1   
 606  727  728  1   
 607  727  732  1   
 608  728  729  1   
 609  728  730  1   
 610  728  731  1   
 611  733  734  1   
 612  733  738  1   
 613  734  735  1   
 614  734  736  1   
 615  734  737  1   
 616  739  740  1   
 617  739  744  1   
 618  740  741  1   
 619  740  742  1   
 620  740  743  1   
 621  745  746  1   
 622  745  750  1   
 623  746  747  1   
 624  746  748  1   
 625  746  749  1   
 626  751  752  1   
 627  751  756  1   
 628  752  753  1   
 629  752  754  1   
 630  752  755  1   
 631  757  758  1   
 632  757  762  1   
 633  758  759  1   
 634  758  760  1   
 635  758  761  1   
 636  763  764  1   
 637  763  768  1   
 638  764  765  1   
 639  764  766  1   
 640  764  767  1   
 641  769  770  1   
 642  769  774  1   
 643  770  771  1   
 644  770  772  1   
 645  770  773  1   
 646  775  776  1   
 647  775  780  1   
 648  776  777  1   
 649  776  778  1   
 650  776  779  1   
 651  781  782  1   
 652  781  786  1   
 653  782  783  1   
 654  782  784  1   
 655  782  785  1   
 656  787  788  1   
 657  787  792  1   
 658  788  789  1   
 659  788  790  1   
 660  788  791  1   
 661  793  794  1   
 662  793  798  1   
 663  794  795  1   
 664  794  796  1   
 665  794  797  1   
 666  799  800  1   
 667  799  804  1   
 668  800  801  1   
 669  800  802  1   
 670  800  803  1   
 671  805  806  1   
 672  805  810  1   
 673  806  807  1   
 674  806  808  1   
 675  806  809  1   
 676  811  812  1   
 677  811  816  1   
 678  812  813  1   
 679  812  814  1   
 680  812  815  1   
 681  817  818  1   
 682  817  822  1   
 683  818  819  1   
 684  818  820  1   
 685  818  821  1   
 686  823  824  1   
 687  823  828  1   
 688  824  825  1   
 689  824  826  1   
 690  824  827  1   
 691  829  830  1   
 692  829  834  1   
 693  830  831  1   
 694  830  832  1   
 695  830  833  1   
 696  835  836  1   
 697  835  840  1   
 698  836  837  1   
 699  836  838  1   
 700  836  839  1   
 701  841  842  1   
 702  841  846  1   
 703  842  843  1   
 704  842  844  1   
 705  842  845  1   
 706  847  848  1   
 707  847  852  1   
 708  848  849  1   
 709  848  850  1   
 710  848  851  1   
 711  853  854  1   
 712  853  858  1   
 713  854  855  1   
 714  854  856  1   
 715  854  857  1   
 716  859  860  1   
 717  859  864  1   
 718  860  861  1   
 719  860  862  1   
 720  860  863  1   
 721  865  866  1   
 722  865  870  1   
 723  866  867  1   
 724  866  868  1   
 725  866  869  1   
 726  871  872  1   
 727  871  876  1   
 728  872  873  1   
 729  872  874  1   
 730  872  875  1   
 731  877  878  1   
 732  877  882  1   
 733  878  879  1   
 734  878  880  1   
 735  878  881  1   
 736  883  884  1   
 737  883  888  1   
 738  884  885  1   
 739  884  886  1   
 740  884  887  1   
 741  889  890  1   
 742  889  894  1   
 743  890  891  1   
 744  890  892  1   
 745  890  893  1   
 746  895  896  1   
 747  895  900  1   
 748  896  897  1   
 749  896  898  1   
 750  896  899  1   
 751  901  902  1   
 752  901  906  1   
 753  902  903  1   
 754  902  904  1   
 755  902  905  1   
 756  907  908  1   
 757  907  912  1   
 758  908  909  1   
 759  908  910  1   
 760  908  911  1   
 761  913  914  1   
 762  913  918  1   
 763  914  915  1   
 764  914  916  1   
 765  914  917  1   
 766  919  920  1   
 767  919  924  1   
 768  920  921  1   
 769  920  922  1   
 770  920  923  1   
 771  925  926  1   
 772  925  930  1   
 773  926  927  1   
 774  926  928  1   
 775  926  929  1   
 776  931  932  1   
 777  931  936  1   
 778  932  933  1   
 779  932  934  1   
 780  932  935  1   
 781  937  938  1   
 782  937  942  1   
 783  938  939  1   
 784  938  940  1   
 785  938  941  1   
 786  943  944  1   
 787  943  948  1   
 788  944  945  1   
 789  944  946  1   
 790  944  947  1   
 791  949  950  1   
 792  949  954  1   
 793  950  951  1   
 794  950  952  1   
 795  950  953  1   
 796  955  956  1   
 797  955  960  1   
 798  956  957  1   
 799  956  958  1   
 800  956  959  1   
 801  961  962  1   
 802  961  966  1   
 803  962  963  1   
 804  962  964  1   
 805  962  965  1   
 806  967  968  1   
 807  967  972  1   
 808  968  969  1   
 809  968  970  1   
 810  968  971  1   
 811  973  974  1   
 812  973  978  1   
 813  974  975  1   
 814  974  976  1   
 815  974  977  1   
 816  979  980  1   
 817  979  984  1   
 818  980  981  1   
 819  980  982  1   
 820  980  983  1   
 821  985  986  1   
 822  985  990  1   
 823  986  987  1   
 824  986  988  1   
 825  986  989  1   
 826  991  992  1   
 827  991  996  1   
 828  992  993  1   
 829  992  994  1   
 830  992  995  1   
 831  997  998  1   
 832  997 1002  1   
 833  998  999  1   
 834  998 1000  1   
 835  998 1001  1   
 836 1003 1004  1   
 837 1003 1008  1   
 838 1004 1005  1   
 839 1004 1006  1   
 840 1004 1007  1   
 841 1009 1010  1   
 842 1009 1014  1   
 843 1010 1011  1   
 844 1010 1012  1   
 845 1010 1013  1   
 846 1015 1016  1   
 847 1015 1020  1   
 848 1016 1017  1   
 849 1016 1018  1   
 850 1016 1019  1   
 851 1021 1022  1   
 852 1021 1026  1   
 853 1022 1023  1   
 854 1022 1024  1   
 855 1022 1025  1   
 856 1027 1028  1   
 857 1027 1032  1   
 858 1028 1029  1   
 859 1028 1030  1   
 860 1028 1031  1   
 861 1033 1034  1   
 862 1033 1038  1   
 863 1034 1035  1   
 864 1034 1036  1   
 865 1034 1037  1   
 866 1039 1040  1   
 867 1039 1044  1   
 868 1040 1041  1   
 869 1040 1042  1   
 870 1040 1043  1   
 871 1045 1046  1   
 872 1045 1050  1   
 873 1046 1047  1   
 874 1046 1048  1   
 875 1046 1049  1   
 876 1051 1052  1   
 877 1051 1056  1   
 878 1052 1053  1   
 879 1052 1054  1   
 880 1052 1055  1   
 881 1057 1058  1   
 882 1057 1062  1   
 883 1058 1059  1   
 884 1058 1060  1   
 885 1058 1061  1   
 886 1063 1064  1   
 887 1063 1068  1   
 888 1064 1065  1   
 889 1064 1066  1   
 890 1064 1067  1   
 891 1069 1070  1   
 892 1069 1074  1   
 893 1070 1071  1   
 894 1070 1072  1   
 895 1070 1073  1   
 896 1075 1076  1   
 897 1075 1080  1   
 898 1076 1077  1   
 899 1076 1078  1   
 900 1076 1079  1   
 901 1081 1082  1   
 902 1081 1086  1   
 903 1082 1083  1   
 904 1082 1084  1   
 905 1082 1085  1   
 906 1087 1088  1   
 907 1087 1092  1   
 908 1088 1089  1   
 909 1088 1090  1   
 910 1088 1091  1   
 911 1093 1094  1   
 912 1093 1098  1   
 913 1094 1095  1   
 914 1094 1096  1   
 915 1094 1097  1   
 916 1099 1100  1   
 917 1099 1104  1   
 918 1100 1101  1   
 919 1100 1102  1   
 920 1100 1103  1   
 921 1105 1106  1   
 922 1105 1110  1   
 923 1106 1107  1   
 924 1106 1108  1   
 925 1106 1109  1   
 926 1111 1112  1   
 927 1111 1116  1   
 928 1112 1113  1   
 929 1112 1114  1   
 930 1112 1115  1   
 931 1117 1118  1   
 932 1117 1122  1   
 933 1118 1119  1   
 934 1118 1120  1   
 935 1118 1121  1   
 936 1123 1124  1   
 937 1123 1128  1   
 938 1124 1125  1   
 939 1124 1126  1   
 940 1124 1127  1   
 941 1129 1130  1   
 942 1129 1134  1   
 943 1130 1131  1   
 944 1130 1132  1   
 945 1130 1133  1   
 946 1135 1136  1   
 947 1135 1140  1   
 948 1136 1137  1   
 949 1136 1138  1   
 950 1136 1139  1   
 951 1141 1142  1   
 952 1141 1146  1   
 953 1142 1143  1   
 954 1142 1144  1   
 955 1142 1145  1   
 956 1147 1148  1   
 957 1147 1152  1   
 958 1148 1149  1   
 959 1148 1150  1   
 960 1148 1151  1   
 961 1153 1154  1   
 962 1153 1158  1   
 963 1154 1155  1   
 964 1154 1156  1   
 965 1154 1157  1   
 966 1159 1160  1   
 967 1159 1164  1   
 968 1160 1161  1   
 969 1160 1162  1   
 970 1160 1163  1   
 971 1165 1166  1   
 972 1165 1170  1   
 973 1166 1167  1   
 974 1166 1168  1   
 975 1166 1169  1   
 976 1171 1172  1   
 977 1171 1176  1   
 978 1172 1173  1   
 979 1172 1174  1   
 980 1172 1175  1   
 981 1177 1178  1   
 982 1177 1182  1   
 983 1178 1179  1   
 984 1178 1180  1   
 985 1178 1181  1   
 986 1183 1184  1   
 987 1183 1188  1   
 988 1184 1185  1   
 989 1184 1186  1   
 990 1184 1187  1   
 991 1189 1190  1   
 992 1189 1194  1   
 993 1190 1191  1   
 994 1190 1192  1   
 995 1190 1193  1   
 996 1195 1196  1   
 997 1195 1200  1   
 998 1196 1197  1   
 999 1196 1198  1   
1000 1196 1199  1   
1001 1201 1202  1   
1002 1201 1206  1   
1003 1202 1203  1   
1004 1202 1204  1   
1005 1202 1205  1   
1006 1207 1208  1   
1007 1207 1212  1   
1008 1208 1209  1   
1009 1208 1210  1   
1010 1208 1211  1   
1011 1213 1214  1   
1012 1213 1218  1   
1013 1214 1215  1   
1014 1214 1216  1   
1015 1214 1217  1   
1016 1219 1220  1   
1017 1219 1224  1   
1018 1220 1221  1   
1019 1220 1222  1   
1020 1220 1223  1   
1021 1225 1226  1   
1022 1225 1230  1   
1023 1226 1227  1   
1024 1226 1228  1   
1025 1226 1229  1   
1026 1231 1232  1   
1027 1231 1236  1   
1028 1232 1233  1   
1029 1232 1234  1   
1030 1232 1235  1   
1031 1237 1238  1   
1032 1237 1242  1   
1033 1238 1239  1   
1034 1238 1240  1   
1035 1238 1241  1   
1036 1243 1244  1   
1037 1243 1248  1   
1038 1244 1245  1   
1039 1244 1246  1   
1040 1244 1247  1   
1041 1249 1250  1   
1042 1249 1254  1   
1043 1250 1251  1   
1044 1250 1252  1   
1045 1250 1253  1   
1046 1255 1256  1   
1047 1255 1260  1   
1048 1256 1257  1   
1049 1256 1258  1   
1050 1256 1259  1   
1051 1261 1262  1   
1052 1261 1266  1   
1053 1262 1263  1   
1054 1262 1264  1   
1055 1262 1265  1   
1056 1267 1268  1   
1057 1267 1272  1   
1058 1268 1269  1   
1059 1268 1270  1   
1060 1268 1271  1   
1061 1273 1274  1   
1062 1273 1278  1   
1063 1274 1275  1   
1064 1274 1276  1   
1065 1274 1277  1   
1066 1279 1280  1   
1067 1279 1284  1   
1068 1280 1281  1   
1069 1280 1282  1   
1070 1280 1283  1   
1071 1285 1286  1   
1072 1285 1290  1   
1073 1286 1287  1   
1074 1286 1288  1   
1075 1286 1289  1   
1076 1291 1292  1   
1077 1291 1296  1   
1078 1292 1293  1   
1079 1292 1294  1   
1080 1292 1295  1   
1081 1297 1298  1   
1082 1297 1302  1   
1083 1298 1299  1   
1084 1298 1300  1   
1085 1298 1301  1   
1086 1303 1304  1   
1087 1303 1308  1   
1088 1304 1305  1   
1089 1304 1306  1   
1090 1304 1307  1   
1091 1309 1310  1   
1092 1309 1314  1   
1093 1310 1311  1   
1094 1310 1312  1   
1095 1310 1313  1   
1096 1315 1316  1   
1097 1315 1320  1   
1098 1316 1317  1   
1099 1316 1318  1   
1100 1316 1319  1   
1101 1321 1322  1   
1102 1321 1326  1   
1103 1322 1323  1   
1104 1322 1324  1   
1105 1322 1325  1   
1106 1327 1328  1   
1107 1327 1332  1   
1108 1328 1329  1   
1109 1328 1330  1   
1110 1328 1331  1   
1111 1333 1334  1   
1112 1333 1338  1   
1113 1334 1335  1   
1114 1334 1336  1   
1115 1334 1337  1   
1116 1339 1340  1   
1117 1339 1344  1   
1118 1340 1341  1   
1119 1340 1342  1   
1120 1340 1343  1   
1121 1345 1346  1   
1122 1345 1350  1   
1123 1346 1347  1   
1124 1346 1348  1   
1125 1346 1349  1   
1126 1351 1352  1   
1127 1351 1356  1   
1128 1352 1353  1   
1129 1352 1354  1   
1130 1352 1355  1   
1131 1357 1358  1   
1132 1357 1362  1   
1133 1358 1359  1   
1134 1358 1360  1   
1135 1358 1361  1   
1136 1363 1364  1   
1137 1363 1368  1   
1138 1364 1365  1   
1139 1364 1366  1   
1140 1364 1367  1   
1141 1369 1370  1   
1142 1369 1374  1   
1143 1370 1371  1   
1144 1370 1372  1   
1145 1370 1373  1   
1146 1375 1376  1   
1147 1375 1380  1   
1148 1376 1377  1   
1149 1376 1378  1   
1150 1376 1379  1   
1151 1381 1382  1   
1152 1381 1386  1   
1153 1382 1383  1   
1154 1382 1384  1   
1155 1382 1385  1   
1156 1387 1388  1   
1157 1387 1392  1   
1158 1388 1389  1   
1159 1388 1390  1   
1160 1388 1391  1   
1161 1393 1394  1   
1162 1393 1398  1   
1163 1394 1395  1   
1164 1394 1396  1   
1165 1394 1397  1   
1166 1399 1400  1   
1167 1399 1404  1   
1168 1400 1401  1   
1169 1400 1402  1   
1170 1400 1403  1   
1171 1405 1406  1   
1172 1405 1410  1   
1173 1406 1407  1   
1174 1406 1408  1   
1175 1406 1409  1   
1176 1411 1412  1   
1177 1411 1416  1   
1178 1412 1413  1   
1179 1412 1414  1   
1180 1412 1415  1   
1181 1417 1418  1   
1182 1417 1422  1   
1183 1418 1419  1   
1184 1418 1420  1   
1185 1418 1421  1   
1186 1423 1424  1   
1187 1423 1428  1   
1188 1424 1425  1   
1189 1424 1426  1   
1190 1424 1427  1   
1191 1429 1430  1   
1192 1429 1434  1   
1193 1430 1431  1   
1194 1430 1432  1   
1195 1430 1433  1   
1196 1435 1436  1   
1197 1435 1440  1   
1198 1436 1437  1   
1199 1436 1438  1   
1200 1436 1439  1   
1201 1441 1442  1   
1202 1441 1446  1   
1203 1442 1443  1   
1204 1442 1444  1   
1205 1442 1445  1   
1206 1447 1448  1   
1207 1447 1452  1   
1208 1448 1449  1   
1209 1448 1450  1   
1210 1448 1451  1   
1211 1453 1454  1   
1212 1453 1458  1   
1213 1454 1455  1   
1214 1454 1456  1   
1215 1454 1457  1   
1216 1459 1460  1   
1217 1459 1464  1   
1218 1460 1461  1   
1219 1460 1462  1   
1220 1460 1463  1   
1221 1465 1466  1   
1222 1465 1470  1   
1223 1466 1467  1   
1224 1466 1468  1   
1225 1466 1469  1   
1226 1471 1472  1   
1227 1471 1476  1   
1228 1472 1473  1   
1229 1472 1474  1   
1230 1472 1475  1   
1231 1477 1478  1   
1232 1477 1482  1   
1233 1478 1479  1   
1234 1478 1480  1   
1235 1478 1481  1   
1236 1483 1484  1   
1237 1483 1488  1   
1238 1484 1485  1   
1239 1484 1486  1   
1240 1484 1487  1   
1241 1489 1490  1   
1242 1489 1494  1   
1243 1490 1491  1   
1244 1490 1492  1   
1245 1490 1493  1   
1246 1495 1496  1   
1247 1495 1500  1   
1248 1496 1497  1   
1249 1496 1498  1   
1250 1496 1499  1   
1251 1501 1502  1   
1252 1501 1506  1   
1253 1502 1503  1   
1254 1502 1504  1   
1255 1502 1505  1   
1256 1507 1508  1   
1257 1507 1512  1   
1258 1508 1509  1   
1259 1508 1510  1   
1260 1508 1511  1   
1261 1513 1514  1   
1262 1513 1518  1   
1263 1514 1515  1   
1264 1514 1516  1   
1265 1514 1517  1   
1266 1519 1520  1   
1267 1519 1524  1   
1268 1520 1521  1   
1269 1520 1522  1   
1270 1520 1523  1   
1271 1525 1526  1   
1272 1525 1530  1   
1273 1526 1527  1   
1274 1526 1528  1   
1275 1526 1529  1   
1276 1531 1532  1   
1277 1531 1536  1   
1278 1532 1533  1   
1279 1532 1534  1   
1280 1532 1535  1   
1281 1537 1538  1   
1282 1537 1542  1   
1283 1538 1539  1   
1284 1538 1540  1   
1285 1538 1541  1   
1286 1543 1544  1   
1287 1543 1548  1   
1288 1544 1545  1   
1289 1544 1546  1   
1290 1544 1547  1   
1291 1549 1550  1   
1292 1549 1554  1   
1293 1550 1551  1   
1294 1550 1552  1   
1295 1550 1553  1   
1296 1555 1556  1   
1297 1555 1560  1   
1298 1556 1557  1   
1299 1556 1558  1   
1300 1556 1559  1   
1301 1561 1562  1   
1302 1561 1566  1   
1303 1562 1563  1   
1304 1562 1564  1   
1305 1562 1565  1   
1306 1567 1568  1   
1307 1567 1572  1   
1308 1568 1569  1   
1309 1568 1570  1   
1310 1568 1571  1   
1311 1573 1574  1   
1312 1573 1578  1   
1313 1574 1575  1   
1314 1574 1576  1   
1315 1574 1577  1   
1316 1579 1580  1   
1317 1579 1584  1   
1318 1580 1581  1   
1319 1580 1582  1   
1320 1580 1583  1   
1321 1585 1586  1   
1322 1585 1590  1   
1323 1586 1587  1   
1324 1586 1588  1   
1325 1586 1589  1   
1326 1591 1592  1   
1327 1591 1596  1   
1328 1592 1593  1   
1329 1592 1594  1   
1330 1592 1595  1   
1331 1597 1598  1   
1332 1597 1602  1   
1333 1598 1599  1   
1334 1598 1600  1   
1335 1598 1601  1   
1336 1603 1604  1   
1337 1603 1608  1   
1338 1604 1605  1   
1339 1604 1606  1   
1340 1604 1607  1   
1341 1609 1610  1   
1342 1609 1614  1   
1343 1610 1611  1   
1344 1610 1612  1   
1345 1610 1613  1   
1346 1615 1616  1   
1347 1615 1620  1   
1348 1616 1617  1   
1349 1616 1618  1   
1350 1616 1619  1   
1351 1621 1622  1   
1352 1621 1626  1   
1353 1622 1623  1   
1354 1622 1624  1   
1355 1622 1625  1   
1356 1627 1628  1   
1357 1627 1632  1   
1358 1628 1629  1   
1359 1628 1630  1   
1360 1628 1631  1   
1361 1633 1634  1   
1362 1633 1638  1   
1363 1634 1635  1   
1364 1634 1636  1   
1365 1634 1637  1   
1366 1639 1640  1   
1367 1639 1644  1   
1368 1640 1641  1   
1369 1640 1642  1   
1370 1640 1643  1   
1371 1645 1646  1   
1372 1645 1650  1   
1373 1646 1647  1   
1374 1646 1648  1   
1375 1646 1649  1   
1376 1651 1652  1   
1377 1651 1656  1   
1378 1652 1653  1   
1379 1652 1654  1   
1380 1652 1655  1   
1381 1657 1658  1   
1382 1657 1662  1   
1383 1658 1659  1   
1384 1658 1660  1   
1385 1658 1661  1   
1386 1663 1664  1   
1387 1663 1668  1   
1388 1664 1665  1   
1389 1664 1666  1   
1390 1664 1667  1   
1391 1669 1670  1   
1392 1669 1674  1   
1393 1670 1671  1   
1394 1670 1672  1   
1395 1670 1673  1   
1396 1675 1676  1   
1397 1675 1680  1   
1398 1676 1677  1   
1399 1676 1678  1   
1400 1676 1679  1   
1401 1681 1682  1   
1402 1681 1686  1   
1403 1682 1683  1   
1404 1682 1684  1   
1405 1682 1685  1   
1406 1687 1688  1   
1407 1687 1692  1   
1408 1688 1689  1   
1409 1688 1690  1   
1410 1688 1691  1   
1411 1693 1694  1   
1412 1693 1698  1   
1413 1694 1695  1   
1414 1694 1696  1   
1415 1694 1697  1   
1416 1699 1700  1   
1417 1699 1704  1   
1418 1700 1701  1   
1419 1700 1702  1   
1420 1700 1703  1   
1421 1705 1706  1   
1422 1705 1710  1   
1423 1706 1707  1   
1424 1706 1708  1   
1425 1706 1709  1   
1426 1711 1712  1   
1427 1711 1716  1   
1428 1712 1713  1   
1429 1712 1714  1   
1430 1712 1715  1   
1431 1717 1718  1   
1432 1717 1722  1   
1433 1718 1719  1   
1434 1718 1720  1   
1435 1718 1721  1   
1436 1723 1724  1   
1437 1723 1728  1   
1438 1724 1725  1   
1439 1724 1726  1   
1440 1724 1727  1   
1441 1729 1730  1   
1442 1729 1734  1   
1443 1730 1731  1   
1444 1730 1732  1   
1445 1730 1733  1   
1446 1735 1736  1   
1447 1735 1740  1   
1448 1736 1737  1   
1449 1736 1738  1   
1450 1736 1739  1   
1451 1741 1742  1   
1452 1741 1746  1   
1453 1742 1743  1   
1454 1742 1744  1   
1455 1742 1745  1   
1456 1747 1748  1   
1457 1747 1752  1   
1458 1748 1749  1   
1459 1748 1750  1   
1460 1748 1751  1   
1461 1753 1754  1   
1462 1753 1758  1   
1463 1754 1755  1   
1464 1754 1756  1   
1465 1754 1757  1   
1466 1759 1760  1   
1467 1759 1764  1   
1468 1760 1761  1   
1469 1760 1762  1   
1470 1760 1763  1   
1471 1765 1766  1   
1472 1765 1770  1   
1473 1766 1767  1   
1474 1766 1768  1   
1475 1766 1769  1   
1476 1771 1772  1   
1477 1771 1776  1   
1478 1772 1773  1   
1479 1772 1774  1   
1480 1772 1775  1   
1481 1777 1778  1   
1482 1777 1782  1   
1483 1778 1779  1   
1484 1778 1780  1   
1485 1778 1781  1   
1486 1783 1784  1   
1487 1783 1788  1   
1488 1784 1785  1   
1489 1784 1786  1   
1490 1784 1787  1   
1491 1789 1790  1   
1492 1789 1794  1   
1493 1790 1791  1   
1494 1790 1792  1   
1495 1790 1793  1   
1496 1795 1796  1   
1497 1795 1800  1   
1498 1796 1797  1   
1499 1796 1798  1   
1500 1796 1799  1   
1501 1801 1802  1   
1502 1801 1806  1   
1503 1802 1803  1   
1504 1802 1804  1   
1505 1802 1805  1   
1506 1807 1808  1   
1507 1807 1812  1   
1508 1808 1809  1   
1509 1808 1810  1   
1510 1808 1811  1   
1511 1813 1814  1   
1512 1813 1818  1   
1513 1814 1815  1   
1514 1814 1816  1   
1515 1814 1817  1   
1516 1819 1820  1   
1517 1819 1824  1   
1518 1820 1821  1   
1519 1820 1822  1   
1520 1820 1823  1   
1521 1825 1826  1   
1522 1825 1830  1   
1523 1826 1827  1   
1524 1826 1828  1   
1525 1826 1829  1   
1526 1831 1832  1   
1527 1831 1836  1   
1528 1832 1833  1   
1529 1832 1834  1   
1530 1832 1835  1   
1531 1837 1838  1   
1532 1837 1842  1   
1533 1838 1839  1   
1534 1838 1840  1   
1535 1838 1841  1   
1536 1843 1844  1   
1537 1843 1848  1   
1538 1844 1845  1   
1539 1844 1846  1   
1540 1844 1847  1   
1541 1849 1850  1   
1542 1849 1854  1   
1543 1850 1851  1   
1544 1850 1852  1   
1545 1850 1853  1   
1546 1855 1856  1   
1547 1855 1860  1   
1548 1856 1857  1   
1549 1856 1858  1   
1550 1856 1859  1   
1551 1861 1862  1   
1552 1861 1866  1   
1553 1862 1863  1   
1554 1862 1864  1   
1555 1862 1865  1   
1556 1867 1868  1   
1557 1867 1872  1   
1558 1868 1869  1   
1559 1868 1870  1   
1560 1868 1871  1   
1561 1873 1874  1   
1562 1873 1878  1   
1563 1874 1875  1   
1564 1874 1876  1   
1565 1874 1877  1   
1566 1879 1880  1   
1567 1879 1884  1   
1568 1880 1881  1   
1569 1880 1882  1   
1570 1880 1883  1   
1571 1885 1886  1   
1572 1885 1890  1   
1573 1886 1887  1   
1574 1886 1888  1   
1575 1886 1889  1   
1576 1891 1892  1   
1577 1891 1896  1   
1578 1892 1893  1   
1579 1892 1894  1   
1580 1892 1895  1   
1581 1897 1898  1   
1582 1897 1902  1   
1583 1898 1899  1   
1584 1898 1900  1   
1585 1898 1901  1   
1586 1903 1904  1   
1587 1903 1908  1   
1588 1904 1905  1   
1589 1904 1906  1   
1590 1904 1907  1   
1591 1909 1910  1   
1592 1909 1914  1   
1593 1910 1911  1   
1594 1910 1912  1   
1595 1910 1913  1   
1596 1915 1916  1   
1597 1915 1920  1   
1598 1916 1917  1   
1599 1916 1918  1   
1600 1916 1919  1   
1601 1921 1922  1   
1602 1921 1926  1   
1603 1922 1923  1   
1604 1922 1924  1   
1605 1922 1925  1   
1606 1927 1928  1   
1607 1927 1932  1   
1608 1928 1929  1   
1609 1928 1930  1   
1610 1928 1931  1   
1611 1933 1934  1   
1612 1933 1938  1   
1613 1934 1935  1   
1614 1934 1936  1   
1615 1934 1937  1   
1616 1939 1940  1   
1617 1939 1944  1   
1618 1940 1941  1   
1619 1940 1942  1   
1620 1940 1943  1   
1621 1945 1946  1   
1622 1945 1950  1   
1623 1946 1947  1   
1624 1946 1948  1   
1625 1946 1949  1   
1626 1951 1952  1   
1627 1951 1956  1   
1628 1952 1953  1   
1629 1952 1954  1   
1630 1952 1955  1   
1631 1957 1958  1   
1632 1957 1962  1   
1633 1958 1959  1   
1634 1958 1960  1   
1635 1958 1961  1   
1636 1963 1964  1   
1637 1963 1968  1   
1638 1964 1965  1   
1639 1964 1966  1   
1640 1964 1967  1   
1641 1969 1970  1   
1642 1969 1974  1   
1643 1970 1971  1   
1644 1970 1972  1   
1645 1970 1973  1   
1646 1975 1976  1   
1647 1975 1980  1   
1648 1976 1977  1   
1649 1976 1978  1   
1650 1976 1979  1   
1651 1981 1982  1   
1652 1981 1986  1   
1653 1982 1983  1   
1654 1982 1984  1   
1655 1982 1985  1   
1656 1987 1988  1   
1657 1987 1992  1   
1658 1988 1989  1   
1659 1988 1990  1   
1660 1988 1991  1   
1661 1993 1994  1   
1662 1993 1998  1   
1663 1994 1995  1   
1664 1994 1996  1   
1665 1994 1997  1   
1666 1999 2000  1   
1667 1999 2004  1   
1668 2000 2001  1   
1669 2000 2002  1   
1670 2000 2003  1   
1671 2005 2006  1   
1672 2005 2010  1   
1673 2006 2007  1   
1674 2006 2008  1   
1675 2006 2009  1   
1676 2011 2012  1   
1677 2011 2016  1   
1678 2012 2013  1   
1679 2012 2014  1   
1680 2012 2015  1   
1681 2017 2018  1   
1682 2017 2022  1   
1683 2018 2019  1   
1684 2018 2020  1   
1685 2018 2021  1   
1686 2023 2024  1   
1687 2023 2028  1   
1688 2024 2025  1   
1689 2024 2026  1   
1690 2024 2027  1   
1691 2029 2030  1   
1692 2029 2034  1   
1693 2030 2031  1   
1694 2030 2032  1   
1695 2030 2033  1   
1696 2035 2036  1   
1697 2035 2040  1   
1698 2036 2037  1   
1699 2036 2038  1   
1700 2036 2039  1   
1701 2041 2042  1   
1702 2041 2046  1   
1703 2042 2043  1   
1704 2042 2044  1   
1705 2042 2045  1   
1706 2047 2048  1   
1707 2047 2052  1   
1708 2048 2049  1   
1709 2048 2050  1   
1710 2048 2051  1   
1711 2053 2054  1   
1712 2053 2058  1   
1713 2054 2055  1   
1714 2054 2056  1   
1715 2054 2057  1   
1716 2059 2060  1   
1717 2059 2064  1   
1718 2060 2061  1   
1719 2060 2062  1   
1720 2060 2063  1   
1721 2065 2066  1   
1722 2065 2070  1   
1723 2066 2067  1   
1724 2066 2068  1   
1725 2066 2069  1   
1726 2071 2072  1   
1727 2071 2076  1   
1728 2072 2073  1   
1729 2072 2074  1   
1730 2072 2075  1   
1731 2077 2078  1   
1732 2077 2082  1   
1733 2078 2079  1   
1734 2078 2080  1   
1735 2078 2081  1   
1736 2083 2084  1   
1737 2083 2088  1   
1738 2084 2085  1   
1739 2084 2086  1   
1740 2084 2087  1   
1741 2089 2090  1   
1742 2089 2094  1   
1743 2090 2091  1   
1744 2090 2092  1   
1745 2090 2093  1   
1746 2095 2096  1   
1747 2095 2100  1   
1748 2096 2097  1   
1749 2096 2098  1   
1750 2096 2099  1   
1751 2101 2102  1   
1752 2101 2106  1   
1753 2102 2103  1   
1754 2102 2104  1   
1755 2102 2105  1   
1756 2107 2108  1   
1757 2107 2112  1   
1758 2108 2109  1   
1759 2108 2110  1   
1760 2108 2111  1   
1761 2113 2114  1   
1762 2113 2118  1   
1763 2114 2115  1   
1764 2114 2116  1   
1765 2114 2117  1   
1766 2119 2120  1   
1767 2119 2124  1   
1768 2120 2121  1   
1769 2120 2122  1   
1770 2120 2123  1   
1771 2125 2126  1   
1772 2125 2130  1   
1773 2126 2127  1   
1774 2126 2128  1   
1775 2126 2129  1   
1776 2131 2132  1   
1777 2131 2136  1   
1778 2132 2133  1   
1779 2132 2134  1   
1780 2132 2135  1   
1781 2137 2138  1   
1782 2137 2142  1   
1783 2138 2139  1   
1784 2138 2140  1   
1785 2138 2141  1   
1786 2143 2144  1   
1787 2143 2148  1   
1788 2144 2145  1   
1789 2144 2146  1   
1790 2144 2147  1   
1791 2149 2150  1   
1792 2149 2154  1   
1793 2150 2151  1   
1794 2150 2152  1   
1795 2150 2153  1   
1796 2155 2156  1   
1797 2155 2160  1   
1798 2156 2157  1   
1799 2156 2158  1   
1800 2156 2159  1   
1801 2161 2162  1   
1802 2161 2166  1   
1803 2162 2163  1   
1804 2162 2164  1   
1805 2162 2165  1   
1806 2167 2168  1   
1807 2167 2172  1   
1808 2168 2169  1   
1809 2168 2170  1   
1810 2168 2171  1   
1811 2173 2174  1   
1812 2173 2178  1   
1813 2174 2175  1   
1814 2174 2176  1   
1815 2174 2177  1   
1816 2179 2180  1   
1817 2179 2184  1   
1818 2180 2181  1   
1819 2180 2182  1   
1820 2180 2183  1   
1821 2185 2186  1   
1822 2185 2190  1   
1823 2186 2187  1   
1824 2186 2188  1   
1825 2186 2189  1   
1826 2191 2192  1   
1827 2191 2196  1   
1828 2192 2193  1   
1829 2192 2194  1   
1830 2192 2195  1   
1831 2197 2198  1   
1832 2197 2202  1   
1833 2198 2199  1   
1834 2198 2200  1   
1835 2198 2201  1   
1836 2203 2204  1   
1837 2203 2208  1   
1838 2204 2205  1   
1839 2204 2206  1   
1840 2204 2207  1   
1841 2209 2210  1   
1842 2209 2214  1   
1843 2210 2211  1   
1844 2210 2212  1   
1845 2210 2213  1   
1846 2215 2216  1   
1847 2215 2220  1   
1848 2216 2217  1   
1849 2216 2218  1   
1850 2216 2219  1   
1851 2221 2222  1   
1852 2221 2226  1   
1853 2222 2223  1   
1854 2222 2224  1   
1855 2222 2225  1   
1856 2227 2228  1   
1857 2227 2232  1   
1858 2228 2229  1   
1859 2228 2230  1   
1860 2228 2231  1   
1861 2233 2234  1   
1862 2233 2238  1   
1863 2234 2235  1   
1864 2234 2236  1   
1865 2234 2237  1   
1866 2239 2240  1   
1867 2239 2244  1   
1868 2240 2241  1   
1869 2240 2242  1   
1870 2240 2243  1   
1871 2245 2246  1   
1872 2245 2250  1   
1873 2246 2247  1   
1874 2246 2248  1   
1875 2246 2249  1   
1876 2251 2252  1   
1877 2251 2256  1   
1878 2252 2253  1   
1879 2252 2254  1   
1880 2252 2255  1   
1881 2257 2258  1   
1882 2257 2262  1   
1883 2258 2259  1   
1884 2258 2260  1   
1885 2258 2261  1   
1886 2263 2264  1   
1887 2263 2268  1   
1888 2264 2265  1   
1889 2264 2266  1   
1890 2264 2267  1   
1891 2269 2270  1   
1892 2269 2274  1   
1893 2270 2271  1   
1894 2270 2272  1   
1895 2270 2273  1   
1896 2275 2276  1   
1897 2275 2280  1   
1898 2276 2277  1   
1899 2276 2278  1   
1900 2276 2279  1   
1901 2281 2282  1   
1902 2281 2286  1   
1903 2282 2283  1   
1904 2282 2284  1   
1905 2282 2285  1   
1906 2287 2288  1   
1907 2287 2292  1   
1908 2288 2289  1   
1909 2288 2290  1   
1910 2288 2291  1   
1911 2293 2294  1   
1912 2293 2298  1   
1913 2294 2295  1   
1914 2294 2296  1   
1915 2294 2297  1   
1916 2299 2300  1   
1917 2299 2304  1   
1918 2300 2301  1   
1919 2300 2302  1   
1920 2300 2303  1   
1921 2305 2306  1   
1922 2305 2310  1   
1923 2306 2307  1   
1924 2306 2308  1   
1925 2306 2309  1   
1926 2311 2312  1   
1927 2311 2316  1   
1928 2312 2313  1   
1929 2312 2314  1   
1930 2312 2315  1   
1931 2317 2318  1   
1932 2317 2322  1   
1933 2318 2319  1   
1934 2318 2320  1   
1935 2318 2321  1   
1936 2323 2324  1   
1937 2323 2328  1   
1938 2324 2325  1   
1939 2324 2326  1   
1940 2324 2327  1   
1941 2329 2330  1   
1942 2329 2334  1   
1943 2330 2331  1   
1944 2330 2332  1   
1945 2330 2333  1   
1946 2335 2336  1   
1947 2335 2340  1   
1948 2336 2337  1   
1949 2336 2338  1   
1950 2336 2339  1   
1951 2341 2342  1   
1952 2341 2346  1   
1953 2342 2343  1   
1954 2342 2344  1   
1955 2342 2345  1   
1956 2347 2348  1   
1957 2347 2352  1   
1958 2348 2349  1   
1959 2348 2350  1   
1960 2348 2351  1   
1961 2353 2354  1   
1962 2353 2358  1   
1963 2354 2355  1   
1964 2354 2356  1   
1965 2354 2357  1   
1966 2359 2360  1   
1967 2359 2364  1   
1968 2360 2361  1   
1969 2360 2362  1   
1970 2360 2363  1   
1971 2365 2366  1   
1972 2365 2370  1   
1973 2366 2367  1   
1974 2366 2368  1   
1975 2366 2369  1   
1976 2371 2372  1   
1977 2371 2376  1   
1978 2372 2373  1   
1979 2372 2374  1   
1980 2372 2375  1   
1981 2377 2378  1   
1982 2377 2382  1   
1983 2378 2379  1   
1984 2378 2380  1   
1985 2378 2381  1   
1986 2383 2384  1   
1987 2383 2388  1   
1988 2384 2385  1   
1989 2384 2386  1   
1990 2384 2387  1   
1991 2389 2390  1   
1992 2389 2394  1   
1993 2390 2391  1   
1994 2390 2392  1   
1995 2390 2393  1   
1996 2395 2396  1   
1997 2395 2400  1   
1998 2396 2397  1   
1999 2396 2398  1   
2000 2396 2399  1   
2001 2401 2402  1   
2002 2401 2406  1   
2003 2402 2403  1   
2004 2402 2404  1   
2005 2402 2405  1   
2006 2407 2408  1   
2007 2407 2412  1   
2008 2408 2409  1   
2009 2408 2410  1   
2010 2408 2411  1   
2011 2413 2414  1   
2012 2413 2418  1   
2013 2414 2415  1   
2014 2414 2416  1   
2015 2414 2417  1   
2016 2419 2420  1   
2017 2419 2424  1   
2018 2420 2421  1   
2019 2420 2422  1   
2020 2420 2423  1   
2021 2425 2426  1   
2022 2425 2430  1   
2023 2426 2427  1   
2024 2426 2428  1   
2025 2426 2429  1   
2026 2431 2432  1   
2027 2431 2436  1   
2028 2432 2433  1   
2029 2432 2434  1   
2030 2432 2435  1   
2031 2437 2438  1   
2032 2437 2442  1   
2033 2438 2439  1   
2034 2438 2440  1   
2035 2438 2441  1   
2036 2443 2444  1   
2037 2443 2448  1   
2038 2444 2445  1   
2039 2444 2446  1   
2040 2444 2447  1   
2041 2449 2450  1   
2042 2449 2454  1   
2043 2450 2451  1   
2044 2450 2452  1   
2045 2450 2453  1   
2046 2455 2456  1   
2047 2455 2460  1   
2048 2456 2457  1   
2049 2456 2458  1   
2050 2456 2459  1   
2051 2461 2462  1   
2052 2461 2466  1   
2053 2462 2463  1   
2054 2462 2464  1   
2055 2462 2465  1   
2056 2467 2468  1   
2057 2467 2472  1   
2058 2468 2469  1   
2059 2468 2470  1   
2060 2468 2471  1   
2061 2473 2474  1   
2062 2473 2478  1   
2063 2474 2475  1   
2064 2474 2476  1   
2065 2474 2477  1   
2066 2479 2480  1   
2067 2479 2484  1   
2068 2480 2481  1   
2069 2480 2482  1   
2070 2480 2483  1   
2071 2485 2486  1   
2072 2485 2490  1   
2073 2486 2487  1   
2074 2486 2488  1   
2075 2486 2489  1   
2076 2491 2492  1   
2077 2491 2496  1   
2078 2492 2493  1   
2079 2492 2494  1   
2080 2492 2495  1   
2081 2497 2498  1   
2082 2497 2502  1   
2083 2498 2499  1   
2084 2498 2500  1   
2085 2498 2501  1   
2086 2503 2504  1   
2087 2503 2508  1   
2088 2504 2505  1   
2089 2504 2506  1   
2090 2504 2507  1   
2091 2509 2510  1   
2092 2509 2514  1   
2093 2510 2511  1   
2094 2510 2512  1   
2095 2510 2513  1   
2096 2515 2516  1   
2097 2515 2520  1   
2098 2516 2517  1   
2099 2516 2518  1   
2100 2516 2519  1   
2101 2521 2522  1   
2102 2521 2526  1   
2103 2522 2523  1   
2104 2522 2524  1   
2105 2522 2525  1   
2106 2527 2528  1   
2107 2527 2532  1   
2108 2528 2529  1   
2109 2528 2530  1   
2110 2528 2531  1   
2111 2533 2534  1   
2112 2533 2538  1   
2113 2534 2535  1   
2114 2534 2536  1   
2115 2534 2537  1   
2116 2539 2540  1   
2117 2539 2544  1   
2118 2540 2541  1   
2119 2540 2542  1   
2120 2540 2543  1   
2121 2545 2546  1   
2122 2545 2550  1   
2123 2546 2547  1   
2124 2546 2548  1   
2125 2546 2549  1   
2126 2551 2552  1   
2127 2551 2556  1   
2128 2552 2553  1   
2129 2552 2554  1   
2130 2552 2555  1   
2131 2557 2558  1   
2132 2557 2562  1   
2133 2558 2559  1   
2134 2558 2560  1   
2135 2558 2561  1   
2136 2563 2564  1   
2137 2563 2568  1   
2138 2564 2565  1   
2139 2564 2566  1   
2140 2564 2567  1   
2141 2569 2570  1   
2142 2569 2574  1   
2143 2570 2571  1   
2144 2570 2572  1   
2145 2570 2573  1   
2146 2575 2576  1   
2147 2575 2580  1   
2148 2576 2577  1   
2149 2576 2578  1   
2150 2576 2579  1   
2151 2581 2582  1   
2152 2581 2586  1   
2153 2582 2583  1   
2154 2582 2584  1   
2155 2582 2585  1   
2156 2587 2588  1   
2157 2587 2592  1   
2158 2588 2589  1   
2159 2588 2590  1   
2160 2588 2591  1   
2161 2593 2594  1   
2162 2593 2598  1   
2163 2594 2595  1   
2164 2594 2596  1   
2165 2594 2597  1   
2166 2599 2600  1   
2167 2599 2604  1   
2168 2600 2601  1   
2169 2600 2602  1   
2170 2600 2603  1   
2171 2605 2606  1   
2172 2605 2610  1   
2173 2606 2607  1   
2174 2606 2608  1   
2175 2606 2609  1   
2176 2611 2612  1   
2177 2611 2616  1   
2178 2612 2613  1   
2179 2612 2614  1   
2180 2612 2615  1   
2181 2617 2618  1   
2182 2617 2622  1   
2183 2618 2619  1   
2184 2618 2620  1   
2185 2618 2621  1   
2186 2623 2624  1   
2187 2623 2628  1   
2188 2624 2625  1   
2189 2624 2626  1   
2190 2624 2627  1   
2191 2629 2630  1   
2192 2629 2634  1   
2193 2630 2631  1   
2194 2630 2632  1   
2195 2630 2633  1   
2196 2635 2636  1   
2197 2635 2640  1   
2198 2636 2637  1   
2199 2636 2638  1   
2200 2636 2639  1   
2201 2641 2642  1   
2202 2641 2646  1   
2203 2642 2643  1   
2204 2642 2644  1   
2205 2642 2645  1   
2206 2647 2648  1   
2207 2647 2652  1   
2208 2648 2649  1   
2209 2648 2650  1   
2210 2648 2651  1   
2211 2653 2654  1   
2212 2653 2658  1   
2213 2654 2655  1   
2214 2654 2656  1   
2215 2654 2657  1   
2216 2659 2660  1   
2217 2659 2664  1   
2218 2660 2661  1   
2219 2660 2662  1   
2220 2660 2663  1   
2221 2665 2666  1   
2222 2665 2670  1   
2223 2666 2667  1   
2224 2666 2668  1   
2225 2666 2669  1   
2226 2671 2672  1   
2227 2671 2676  1   
2228 2672 2673  1   
2229 2672 2674  1   
2230 2672 2675  1   
2231 2677 2678  1   
2232 2677 2682  1   
2233 2678 2679  1   
2234 2678 2680  1   
2235 2678 2681  1   
2236 2683 2684  1   
2237 2683 2688  1   
2238 2684 2685  1   
2239 2684 2686  1   
2240 2684 2687  1   
2241 2689 2690  1   
2242 2689 2694  1   
2243 2690 2691  1   
2244 2690 2692  1   
2245 2690 2693  1   
2246 2695 2696  1   
2247 2695 2700  1   
2248 2696 2697  1   
2249 2696 2698  1   
2250 2696 2699  1   
2251 2701 2702  1   
2252 2701 2706  1   
2253 2702 2703  1   
2254 2702 2704  1   
2255 2702 2705  1   
2256 2707 2708  1   
2257 2707 2712  1   
2258 2708 2709  1   
2259 2708 2710  1   
2260 2708 2711  1   
2261 2713 2714  1   
2262 2713 2718  1   
2263 2714 2715  1   
2264 2714 2716  1   
2265 2714 2717  1   
2266 2719 2720  1   
2267 2719 2724  1   
2268 2720 2721  1   
2269 2720 2722  1   
2270 2720 2723  1   
2271 2725 2726  1   
2272 2725 2730  1   
2273 2726 2727  1   
2274 2726 2728  1   
2275 2726 2729  1   
2276 2731 2732  1   
2277 2731 2736  1   
2278 2732 2733  1   
2279 2732 2734  1   
2280 2732 2735  1   
2281 2737 2738  1   
2282 2737 2742  1   
2283 2738 2739  1   
2284 2738 2740  1   
2285 2738 2741  1   
2286 2743 2744  1   
2287 2743 2748  1   
2288 2744 2745  1   
2289 2744 2746  1   
2290 2744 2747  1   
2291 2749 2750  1   
2292 2749 2754  1   
2293 2750 2751  1   
2294 2750 2752  1   
2295 2750 2753  1   
2296 2755 2756  1   
2297 2755 2760  1   
2298 2756 2757  1   
2299 2756 2758  1   
2300 2756 2759  1   
2301 2761 2762  1   
2302 2761 2766  1   
2303 2762 2763  1   
2304 2762 2764  1   
2305 2762 2765  1   
2306 2767 2768  1   
2307 2767 2772  1   
2308 2768 2769  1   
2309 2768 2770  1   
2310 2768 2771  1   
2311 2773 2774  1   
2312 2773 2778  1   
2313 2774 2775  1   
2314 2774 2776  1   
2315 2774 2777  1   
2316 2779 2780  1   
2317 2779 2784  1   
2318 2780 2781  1   
2319 2780 2782  1   
2320 2780 2783  1   
2321 2785 2786  1   
2322 2785 2790  1   
2323 2786 2787  1   
2324 2786 2788  1   
2325 2786 2789  1   
2326 2791 2792  1   
2327 2791 2796  1   
2328 2792 2793  1   
2329 2792 2794  1   
2330 2792 2795  1   
2331 2797 2798  1   
2332 2797 2802  1   
2333 2798 2799  1   
2334 2798 2800  1   
2335 2798 2801  1   
2336 2803 2804  1   
2337 2803 2808  1   
2338 2804 2805  1   
2339 2804 2806  1   
2340 2804 2807  1   
2341 2809 2810  1   
2342 2809 2814  1   
2343 2810 2811  1   
2344 2810 2812  1   
2345 2810 2813  1   
2346 2815 2816  1   
2347 2815 2820  1   
2348 2816 2817  1   
2349 2816 2818  1   
2350 2816 2819  1   
2351 2821 2822  1   
2352 2821 2826  1   
2353 2822 2823  1   
2354 2822 2824  1   
2355 2822 2825  1   
2356 2827 2828  1   
2357 2827 2832  1   
2358 2828 2829  1   
2359 2828 2830  1   
2360 2828 2831  1   
2361 2833 2834  1   
2362 2833 2838  1   
2363 2834 2835  1   
2364 2834 2836  1   
2365 2834 2837  1   
2366 2839 2840  1   
2367 2839 2844  1   
2368 2840 2841  1   
2369 2840 2842  1   
2370 2840 2843  1   
2371 2845 2846  1   
2372 2845 2850  1   
2373 2846 2847  1   
2374 2846 2848  1   
2375 2846 2849  1   
2376 2851 2852  1   
2377 2851 2856  1   
2378 2852 2853  1   
2379 2852 2854  1   
2380 2852 2855  1   
2381 2857 2858  1   
2382 2857 2862  1   
2383 2858 2859  1   
2384 2858 2860  1   
2385 2858 2861  1   
2386 2863 2864  1   
2387 2863 2868  1   
2388 2864 2865  1   
2389 2864 2866  1   
2390 2864 2867  1   
2391 2869 2870  1   
2392 2869 2874  1   
2393 2870 2871  1   
2394 2870 2872  1   
2395 2870 2873  1   
2396 2875 2876  1   
2397 2875 2880  1   
2398 2876 2877  1   
2399 2876 2878  1   
2400 2876 2879  1   
2401 2881 2882  1   
2402 2881 2886  1   
2403 2882 2883  1   
2404 2882 2884  1   
2405 2882 2885  1   
2406 2887 2888  1   
2407 2887 2892  1   
2408 2888 2889  1   
2409 2888 2890  1   
2410 2888 2891  1   
2411 2893 2894  1   
2412 2893 2898  1   
2413 2894 2895  1   
2414 2894 2896  1   
2415 2894 2897  1   
2416 2899 2900  1   
2417 2899 2904  1   
2418 2900 2901  1   
2419 2900 2902  1   
2420 2900 2903  1   
2421 2905 2906  1   
2422 2905 2910  1   
2423 2906 2907  1   
2424 2906 2908  1   
2425 2906 2909  1   
2426 2911 2912  1   
2427 2911 2916  1   
2428 2912 2913  1   
2429 2912 2914  1   
2430 2912 2915  1   
2431 2917 2918  1   
2432 2917 2922  1   
2433 2918 2919  1   
2434 2918 2920  1   
2435 2918 2921  1   
2436 2923 2924  1   
2437 2923 2928  1   
2438 2924 2925  1   
2439 2924 2926  1   
2440 2924 2927  1   
2441 2929 2930  1   
2442 2929 2934  1   
2443 2930 2931  1   
2444 2930 2932  1   
2445 2930 2933  1   
2446 2935 2936  1   
2447 2935 2940  1   
2448 2936 2937  1   
2449 2936 2938  1   
2450 2936 2939  1   
2451 2941 2942  1   
2452 2941 2946  1   
2453 2942 2943  1   
2454 2942 2944  1   
2455 2942 2945  1   
2456 2947 2948  1   
2457 2947 2952  1   
2458 2948 2949  1   
2459 2948 2950  1   
2460 2948 2951  1   
2461 2953 2954  1   
2462 2953 2958  1   
2463 2954 2955  1   
2464 2954 2956  1   
2465 2954 2957  1   
2466 2959 2960  1   
2467 2959 2964  1   
2468 2960 2961  1   
2469 2960 2962  1   
2470 2960 2963  1   
2471 2965 2966  1   
2472 2965 2970  1   
2473 2966 2967  1   
2474 2966 2968  1   
2475 2966 2969  1   
2476 2971 2972  1   
2477 2971 2976  1   
2478 2972 2973  1   
2479 2972 2974  1   
2480 2972 2975  1   
2481 2977 2978  1   
2482 2977 2982  1   
2483 2978 2979  1   
2484 2978 2980  1   
2485 2978 2981  1   
2486 2983 2984  1   
2487 2983 2988  1   
2488 2984 2985  1   
2489 2984 2986  1   
2490 2984 2987  1   
2491 2989 2990  1   
2492 2989 2994  1   
2493 2990 2991  1   
2494 2990 2992  1   
2495 2990 2993  1   
2496 2995 2996  1   
2497 2995 3000  1   
2498 2996 2997  1   
2499 2996 2998  1   
2500 2996 2999  1   
2501 3001 3002  1   
2502 3001 3006  1   
2503 3002 3003  1   
2504 3002 3004  1   
2505 3002 3005  1   
2506 3007 3008  1   
2507 3007 3012  1   
2508 3008 3009  1   
2509 3008 3010  1   
2510 3008 3011  1   
2511 3013 3014  1   
2512 3013 3018  1   
2513 3014 3015  1   
2514 3014 3016  1   
2515 3014 3017  1   
2516 3019 3020  1   
2517 3019 3024  1   
2518 3020 3021  1   
2519 3020 3022  1   
2520 3020 3023  1   
2521 3025 3026  1   
2522 3025 3030  1   
2523 3026 3027  1   
2524 3026 3028  1   
2525 3026 3029  1   
2526 3031 3032  1   
2527 3031 3036  1   
2528 3032 3033  1   
2529 3032 3034  1   
2530 3032 3035  1   
2531 3037 3038  1   
2532 3037 3042  1   
2533 3038 3039  1   
2534 3038 3040  1   
2535 3038 3041  1   
2536 3043 3044  1   
2537 3043 3048  1   
2538 3044 3045  1   
2539 3044 3046  1   
2540 3044 3047  1   
2541 3049 3050  1   
2542 3049 3054  1   
2543 3050 3051  1   
2544 3050 3052  1   
2545 3050 3053  1   
2546 3055 3056  1   
2547 3055 3060  1   
2548 3056 3057  1   
2549 3056 3058  1   
2550 3056 3059  1   
2551 3061 3062  1   
2552 3061 3066  1   
2553 3062 3063  1   
2554 3062 3064  1   
2555 3062 3065  1   
2556 3067 3068  1   
2557 3067 3072  1   
2558 3068 3069  1   
2559 3068 3070  1   
2560 3068 3071  1   
2561 3073 3074  1   
2562 3073 3078  1   
2563 3074 3075  1   
2564 3074 3076  1   
2565 3074 3077  1   
2566 3079 3080  1   
2567 3079 3084  1   
2568 3080 3081  1   
2569 3080 3082  1   
2570 3080 3083  1   
2571 3085 3086  1   
2572 3085 3090  1   
2573 3086 3087  1   
2574 3086 3088  1   
2575 3086 3089  1   
2576 3091 3092  1   
2577 3091 3096  1   
2578 3092 3093  1   
2579 3092 3094  1   
2580 3092 3095  1   
2581 3097 3098  1   
2582 3097 3102  1   
2583 3098 3099  1   
2584 3098 3100  1   
2585 3098 3101  1   
2586 3103 3104  1   
2587 3103 3108  1   
2588 3104 3105  1   
2589 3104 3106  1   
2590 3104 3107  1   
2591 3109 3110  1   
2592 3109 3114  1   
2593 3110 3111  1   
2594 3110 3112  1   
2595 3110 3113  1   
2596 3115 3116  1   
2597 3115 3120  1   
2598 3116 3117  1   
2599 3116 3118  1   
2600 3116 3119  1   
2601 3121 3122  1   
2602 3121 3126  1   
2603 3122 3123  1   
2604 3122 3124  1   
2605 3122 3125  1   
2606 3127 3128  1   
2607 3127 3132  1   
2608 3128 3129  1   
2609 3128 3130  1   
2610 3128 3131  1   
2611 3133 3134  1   
2612 3133 3138  1   
2613 3134 3135  1   
2614 3134 3136  1   
2615 3134 3137  1   
2616 3139 3140  1   
2617 3139 3144  1   
2618 3140 3141  1   
2619 3140 3142  1   
2620 3140 3143  1   
2621 3145 3146  1   
2622 3145 3150  1   
2623 3146 3147  1   
2624 3146 3148  1   
2625 3146 3149  1   
2626 3151 3152  1   
2627 3151 3156  1   
2628 3152 3153  1   
2629 3152 3154  1   
2630 3152 3155  1   
2631 3157 3158  1   
2632 3157 3162  1   
2633 3158 3159  1   
2634 3158 3160  1   
2635 3158 3161  1   
2636 3163 3164  1   
2637 3163 3168  1   
2638 3164 3165  1   
2639 3164 3166  1   
2640 3164 3167  1   
2641 3169 3170  1   
2642 3169 3174  1   
2643 3170 3171  1   
2644 3170 3172  1   
2645 3170 3173  1   
2646 3175 3176  1   
2647 3175 3180  1   
2648 3176 3177  1   
2649 3176 3178  1   
2650 3176 3179  1   
2651 3181 3182  1   
2652 3181 3186  1   
2653 3182 3183  1   
2654 3182 3184  1   
2655 3182 3185  1   
2656 3187 3188  1   
2657 3187 3192  1   
2658 3188 3189  1   
2659 3188 3190  1   
2660 3188 3191  1   
2661 3193 3194  1   
2662 3193 3198  1   
2663 3194 3195  1   
2664 3194 3196  1   
2665 3194 3197  1   
2666 3199 3200  1   
2667 3199 3204  1   
2668 3200 3201  1   
2669 3200 3202  1   
2670 3200 3203  1   
2671 3205 3206  1   
2672 3205 3210  1   
2673 3206 3207  1   
2674 3206 3208  1   
2675 3206 3209  1   
2676 3211 3212  1   
2677 3211 3216  1   
2678 3212 3213  1   
2679 3212 3214  1   
2680 3212 3215  1   
2681 3217 3218  1   
2682 3217 3222  1   
2683 3218 3219  1   
2684 3218 3220  1   
2685 3218 3221  1   
2686 3223 3224  1   
2687 3223 3228  1   
2688 3224 3225  1   
2689 3224 3226  1   
2690 3224 3227  1   
2691 3229 3230  1   
2692 3229 3234  1   
2693 3230 3231  1   
2694 3230 3232  1   
2695 3230 3233  1   
2696 3235 3236  1   
2697 3235 3240  1   
2698 3236 3237  1   
2699 3236 3238  1   
2700 3236 3239  1   
2701 3241 3242  1   
2702 3241 3246  1   
2703 3242 3243  1   
2704 3242 3244  1   
2705 3242 3245  1   
2706 3247 3248  1   
2707 3247 3252  1   
2708 3248 3249  1   
2709 3248 3250  1   
2710 3248 3251  1   
2711 3253 3254  1   
2712 3253 3258  1   
2713 3254 3255  1   
2714 3254 3256  1   
2715 3254 3257  1   
2716 3259 3260  1   
2717 3259 3264  1   
2718 3260 3261  1   
2719 3260 3262  1   
2720 3260 3263  1   
2721 3265 3266  1   
2722 3265 3270  1   
2723 3266 3267  1   
2724 3266 3268  1   
2725 3266 3269  1   
2726 3271 3272  1   
2727 3271 3276  1   
2728 3272 3273  1   
2729 3272 3274  1   
2730 3272 3275  1   
2731 3277 3278  1   
2732 3277 3282  1   
2733 3278 3279  1   
2734 3278 3280  1   
2735 3278 3281  1   
2736 3283 3284  1   
2737 3283 3288  1   
2738 3284 3285  1   
2739 3284 3286  1   
2740 3284 3287  1   
2741 3289 3290  1   
2742 3289 3294  1   
2743 3290 3291  1   
2744 3290 3292  1   
2745 3290 3293  1   
2746 3295 3296  1   
2747 3295 3300  1   
2748 3296 3297  1   
2749 3296 3298  1   
2750 3296 3299  1   
2751 3301 3302  1   
2752 3301 3306  1   
2753 3302 3303  1   
2754 3302 3304  1   
2755 3302 3305  1   
2756 3307 3308  1   
2757 3307 3312  1   
2758 3308 3309  1   
2759 3308 3310  1   
2760 3308 3311  1   
2761 3313 3314  1   
2762 3313 3318  1   
2763 3314 3315  1   
2764 3314 3316  1   
2765 3314 3317  1   
2766 3319 3320  1   
2767 3319 3324  1   
2768 3320 3321  1   
2769 3320 3322  1   
2770 3320 3323  1   
2771 3325 3326  1   
2772 3325 3330  1   
2773 3326 3327  1   
2774 3326 3328  1   
2775 3326 3329  1   
2776 3331 3332  1   
2777 3331 3336  1   
2778 3332 3333  1   
2779 3332 3334  1   
2780 3332 3335  1   
2781 3337 3338  1   
2782 3337 3342  1   
2783 3338 3339  1   
2784 3338 3340  1   
2785 3338 3341  1   
2786 3343 3344  1   
2787 3343 3348  1   
2788 3344 3345  1   
2789 3344 3346  1   
2790 3344 3347  1   
2791 3349 3350  1   
2792 3349 3354  1   
2793 3350 3351  1   
2794 3350 3352  1   
2795 3350 3353  1   
2796 3355 3356  1   
2797 3355 3360  1   
2798 3356 3357  1   
2799 3356 3358  1   
2800 3356 3359  1   
2801 3361 3362  1   
2802 3361 3366  1   
2803 3362 3363  1   
2804 3362 3364  1   
2805 3362 3365  1   
2806 3367 3368  1   
2807 3367 3372  1   
2808 3368 3369  1   
2809 3368 3370  1   
2810 3368 3371  1   
2811 3373 3374  1   
2812 3373 3378  1   
2813 3374 3375  1   
2814 3374 3376  1   
2815 3374 3377  1   
2816 3379 3380  1   
2817 3379 3384  1   
2818 3380 3381  1   
2819 3380 3382  1   
2820 3380 3383  1   
2821 3385 3386  1   
2822 3385 3390  1   
2823 3386 3387  1   
2824 3386 3388  1   
2825 3386 3389  1   
2826 3391 3392  1   
2827 3391 3396  1   
2828 3392 3393  1   
2829 3392 3394  1   
2830 3392 3395  1   
2831 3397 3398  1   
2832 3397 3402  1   
2833 3398 3399  1   
2834 3398 3400  1   
2835 3398 3401  1   
2836 3403 3404  1   
2837 3403 3408  1   
2838 3404 3405  1   
2839 3404 3406  1   
2840 3404 3407  1   
2841 3409 3410  1   
2842 3409 3414  1   
2843 3410 3411  1   
2844 3410 3412  1   
2845 3410 3413  1   
2846 3415 3416  1   
2847 3415 3420  1   
2848 3416 3417  1   
2849 3416 3418  1   
2850 3416 3419  1   
2851 3421 3422  1   
2852 3421 3426  1   
2853 3422 3423  1   
2854 3422 3424  1   
2855 3422 3425  1   
2856 3427 3428  1   
2857 3427 3432  1   
2858 3428 3429  1   
2859 3428 3430  1   
2860 3428 3431  1   
2861 3433 3434  1   
2862 3433 3438  1   
2863 3434 3435  1   
2864 3434 3436  1   
2865 3434 3437  1   
2866 3439 3440  1   
2867 3439 3444  1   
2868 3440 3441  1   
2869 3440 3442  1   
2870 3440 3443  1   
2871 3445 3446  1   
2872 3445 3450  1   
2873 3446 3447  1   
2874 3446 3448  1   
2875 3446 3449  1   
2876 3451 3452  1   
2877 3451 3456  1   
2878 3452 3453  1   
2879 3452 3454  1   
2880 3452 3455  1   
2881 3457 3458  1   
2882 3457 3462  1   
2883 3458 3459  1   
2884 3458 3460  1   
2885 3458 3461  1   
2886 3463 3464  1   
2887 3463 3468  1   
2888 3464 3465  1   
2889 3464 3466  1   
2890 3464 3467  1   
2891 3469 3470  1   
2892 3469 3474  1   
2893 3470 3471  1   
2894 3470 3472  1   
2895 3470 3473  1   
2896 3475 3476  1   
2897 3475 3480  1   
2898 3476 3477  1   
2899 3476 3478  1   
2900 3476 3479  1   
2901 3481 3482  1   
2902 3481 3486  1   
2903 3482 3483  1   
2904 3482 3484  1   
2905 3482 3485  1   
2906 3487 3488  1   
2907 3487 3492  1   
2908 3488 3489  1   
2909 3488 3490  1   
2910 3488 3491  1   
2911 3493 3494  1   
2912 3493 3498  1   
2913 3494 3495  1   
2914 3494 3496  1   
2915 3494 3497  1   
2916 3499 3500  1   
2917 3499 3504  1   
2918 3500 3501  1   
2919 3500 3502  1   
2920 3500 3503  1   
2921 3505 3506  1   
2922 3505 3510  1   
2923 3506 3507  1   
2924 3506 3508  1   
2925 3506 3509  1   
2926 3511 3512  1   
2927 3511 3516  1   
2928 3512 3513  1   
2929 3512 3514  1   
2930 3512 3515  1   
2931 3517 3518  1   
2932 3517 3522  1   
2933 3518 3519  1   
2934 3518 3520  1   
2935 3518 3521  1   
2936 3523 3524  1   
2937 3523 3528  1   
2938 3524 3525  1   
2939 3524 3526  1   
2940 3524 3527  1   
2941 3529 3530  1   
2942 3529 3534  1   
2943 3530 3531  1   
2944 3530 3532  1   
2945 3530 3533  1   
2946 3535 3536  1   
2947 3535 3540  1   
2948 3536 3537  1   
2949 3536 3538  1   
2950 3536 3539  1   
2951 3541 3542  1   
2952 3541 3546  1   
2953 3542 3543  1   
2954 3542 3544  1   
2955 3542 3545  1   
2956 3547 3548  1   
2957 3547 3552  1   
2958 3548 3549  1   
2959 3548 3550  1   
2960 3548 3551  1   
2961 3553 3554  1   
2962 3553 3558  1   
2963 3554 3555  1   
2964 3554 3556  1   
2965 3554 3557  1   
2966 3559 3560  1   
2967 3559 3564  1   
2968 3560 3561  1   
2969 3560 3562  1   
2970 3560 3563  1   
2971 3565 3566  1   
2972 3565 3570  1   
2973 3566 3567  1   
2974 3566 3568  1   
2975 3566 3569  1   
2976 3571 3572  1   
2977 3571 3576  1   
2978 3572 3573  1   
2979 3572 3574  1   
2980 3572 3575  1   
2981 3577 3578  1   
2982 3577 3582  1   
2983 3578 3579  1   
2984 3578 3580  1   
2985 3578 3581  1   
2986 3583 3584  1   
2987 3583 3588  1   
2988 3584 3585  1   
2989 3584 3586  1   
2990 3584 3587  1   
2991 3589 3590  1   
2992 3589 3594  1   
2993 3590 3591  1   
2994 3590 3592  1   
2995 3590 3593  1   
2996 3595 3596  1   
2997 3595 3600  1   
2998 3596 3597  1   
2999 3596 3598  1   
3000 3596 3599  1   
3001 3601 3602  1   
3002 3601 3606  1   
3003 3602 3603  1   
3004 3602 3604  1   
3005 3602 3605  1   
3006 3607 3608  1   
3007 3607 3612  1   
3008 3608 3609  1   
3009 3608 3610  1   
3010 3608 3611  1   
3011 3613 3614  1   
3012 3613 3618  1   
3013 3614 3615  1   
3014 3614 3616  1   
3015 3614 3617  1   
3016 3619 3620  1   
3017 3619 3624  1   
3018 3620 3621  1   
3019 3620 3622  1   
3020 3620 3623  1   
3021 3625 3626  1   
3022 3625 3630  1   
3023 3626 3627  1   
3024 3626 3628  1   
3025 3626 3629  1   
3026 3631 3632  1   
3027 3631 3636  1   
3028 3632 3633  1   
3029 3632 3634  1   
3030 3632 3635  1   
3031 3637 3638  1   
3032 3637 3642  1   
3033 3638 3639  1   
3034 3638 3640  1   
3035 3638 3641  1   
3036 3643 3644  1   
3037 3643 3648  1   
3038 3644 3645  1   
3039 3644 3646  1   
3040 3644 3647  1   
3041 3649 3650  1   
3042 3649 3654  1   
3043 3650 3651  1   
3044 3650 3652  1   
3045 3650 3653  1   
3046 3655 3656  1   
3047 3655 3660  1   
3048 3656 3657  1   
3049 3656 3658  1   
3050 3656 3659  1   
3051 3661 3662  1   
3052 3661 3666  1   
3053 3662 3663  1   
3054 3662 3664  1   
3055 3662 3665  1   
3056 3667 3668  1   
3057 3667 3672  1   
3058 3668 3669  1   
3059 3668 3670  1   
3060 3668 3671  1   
3061 3673 3674  1   
3062 3673 3678  1   
3063 3674 3675  1   
3064 3674 3676  1   
3065 3674 3677  1   
3066 3679 3680  1   
3067 3679 3684  1   
3068 3680 3681  1   
3069 3680 3682  1   
3070 3680 3683  1   
3071 3685 3686  1   
3072 3685 3690  1   
3073 3686 3687  1   
3074 3686 3688  1   
3075 3686 3689  1   
3076 3691 3692  1   
3077 3691 3696  1   
3078 3692 3693  1   
3079 3692 3694  1   
3080 3692 3695  1   
3081 3697 3698  1   
3082 3697 3702  1   
3083 3698 3699  1   
3084 3698 3700  1   
3085 3698 3701  1   
3086 3703 3704  1   
3087 3703 3708  1   
3088 3704 3705  1   
3089 3704 3706  1   
3090 3704 3707  1   
3091 3709 3710  1   
3092 3709 3714  1   
3093 3710 3711  1   
3094 3710 3712  1   
3095 3710 3713  1   
3096 3715 3716  1   
3097 3715 3720  1   
3098 3716 3717  1   
3099 3716 3718  1   
3100 3716 3719  1   
3101 3721 3722  1   
3102 3721 3726  1   
3103 3722 3723  1   
3104 3722 3724  1   
3105 3722 3725  1   
3106 3727 3728  1   
3107 3727 3732  1   
3108 3728 3729  1   
3109 3728 3730  1   
3110 3728 3731  1   
3111 3733 3734  1   
3112 3733 3738  1   
3113 3734 3735  1   
3114 3734 3736  1   
3115 3734 3737  1   
3116 3739 3740  1   
3117 3739 3744  1   
3118 3740 3741  1   
3119 3740 3742  1   
3120 3740 3743  1   
3121 3745 3746  1   
3122 3745 3750  1   
3123 3746 3747  1   
3124 3746 3748  1   
3125 3746 3749  1   
3126 3751 3752  1   
3127 3751 3756  1   
3128 3752 3753  1   
3129 3752 3754  1   
3130 3752 3755  1   
3131 3757 3758  1   
3132 3757 3762  1   
3133 3758 3759  1   
3134 3758 3760  1   
3135 3758 3761  1   
3136 3763 3764  1   
3137 3763 3768  1   
3138 3764 3765  1   
3139 3764 3766  1   
3140 3764 3767  1   
3141 3769 3770  1   
3142 3769 3774  1   
3143 3770 3771  1   
3144 3770 3772  1   
3145 3770 3773  1   
3146 3775 3776  1   
3147 3775 3780  1   
3148 3776 3777  1   
3149 3776 3778  1   
3150 3776 3779  1   
3151 3781 3782  1   
3152 3781 3786  1   
3153 3782 3783  1   
3154 3782 3784  1   
3155 3782 3785  1   
3156 3787 3788  1   
3157 3787 3792  1   
3158 3788 3789  1   
3159 3788 3790  1   
3160 3788 3791  1   
3161 3793 3794  1   
3162 3793 3798  1   
3163 3794 3795  1   
3164 3794 3796  1   
3165 3794 3797  1   
3166 3799 3800  1   
3167 3799 3804  1   
3168 3800 3801  1   
3169 3800 3802  1   
3170 3800 3803  1   
3171 3805 3806  1   
3172 3805 3810  1   
3173 3806 3807  1   
3174 3806 3808  1   
3175 3806 3809  1   
3176 3811 3812  1   
3177 3811 3816  1   
3178 3812 3813  1   
3179 3812 3814  1   
3180 3812 3815  1   
3181 3817 3818  1   
3182 3817 3822  1   
3183 3818 3819  1   
3184 3818 3820  1   
3185 3818 3821  1   
3186 3823 3824  1   
3187 3823 3828  1   
3188 3824 3825  1   
3189 3824 3826  1   
3190 3824 3827  1   
3191 3829 3830  1   
3192 3829 3834  1   
3193 3830 3831  1   
3194 3830 3832  1   
3195 3830 3833  1   
3196 3835 3836  1   
3197 3835 3840  1   
3198 3836 3837  1   
3199 3836 3838  1   
3200 3836 3839  1   
3201 3841 3842  1   
3202 3841 3846  1   
3203 3842 3843  1   
3204 3842 3844  1   
3205 3842 3845  1   
3206 3847 3848  1   
3207 3847 3852  1   
3208 3848 3849  1   
3209 3848 3850  1   
3210 3848 3851  1   
3211 3853 3854  1   
3212 3853 3858  1   
3213 3854 3855  1   
3214 3854 3856  1   
3215 3854 3857  1   
3216 3859 3860  1   
3217 3859 3864  1   
3218 3860 3861  1   
3219 3860 3862  1   
3220 3860 3863  1   
3221 3865 3866  1   
3222 3865 3870  1   
3223 3866 3867  1   
3224 3866 3868  1   
3225 3866 3869  1   
3226 3871 3872  1   
3227 3871 3876  1   
3228 3872 3873  1   
3229 3872 3874  1   
3230 3872 3875  1   
3231 3877 3878  1   
3232 3877 3882  1   
3233 3878 3879  1   
3234 3878 3880  1   
3235 3878 3881  1   
3236 3883 3884  1   
3237 3883 3888  1   
3238 3884 3885  1   
3239 3884 3886  1   
3240 3884 3887  1   
3241 3889 3890  1   
3242 3889 3894  1   
3243 3890 3891  1   
3244 3890 3892  1   
3245 3890 3893  1   
3246 3895 3896  1   
3247 3895 3900  1   
3248 3896 3897  1   
3249 3896 3898  1   
3250 3896 3899  1   
3251 3901 3902  1   
3252 3901 3906  1   
3253 3902 3903  1   
3254 3902 3904  1   
3255 3902 3905  1   
3256 3907 3908  1   
3257 3907 3912  1   
3258 3908 3909  1   
3259 3908 3910  1   
3260 3908 3911  1   
3261 3913 3914  1   
3262 3913 3918  1   
3263 3914 3915  1   
3264 3914 3916  1   
3265 3914 3917  1   
3266 3919 3920  1   
3267 3919 3924  1   
3268 3920 3921  1   
3269 3920 3922  1   
3270 3920 3923  1   
3271 3925 3926  1   
3272 3925 3930  1   
3273 3926 3927  1   
3274 3926 3928  1   
3275 3926 3929  1   
3276 3931 3932  1   
3277 3931 3936  1   
3278 3932 3933  1   
3279 3932 3934  1   
3280 3932 3935  1   
3281 3937 3938  1   
3282 3937 3942  1   
3283 3938 3939  1   
3284 3938 3940  1   
3285 3938 3941  1   
3286 3943 3944  1   
3287 3943 3948  1   
3288 3944 3945  1   
3289 3944 3946  1   
3290 3944 3947  1   
3291 3949 3950  1   
3292 3949 3954  1   
3293 3950 3951  1   
3294 3950 3952  1   
3295 3950 3953  1   
3296 3955 3956  1   
3297 3955 3960  1   
3298 3956 3957  1   
3299 3956 3958  1   
3300 3956 3959  1   
3301 3961 3962  1   
3302 3961 3966  1   
3303 3962 3963  1   
3304 3962 3964  1   
3305 3962 3965  1   
3306 3967 3968  1   
3307 3967 3972  1   
3308 3968 3969  1   
3309 3968 3970  1   
3310 3968 3971  1   
3311 3973 3974  1   
3312 3973 3978  1   
3313 3974 3975  1   
3314 3974 3976  1   
3315 3974 3977  1   
3316 3979 3980  1   
3317 3979 3984  1   
3318 3980 3981  1   
3319 3980 3982  1   
3320 3980 3983  1   
3321 3985 3986  1   
3322 3985 3990  1   
3323 3986 3987  1   
3324 3986 3988  1   
3325 3986 3989  1   
3326 3991 3992  1   
3327 3991 3996  1   
3328 3992 3993  1   
3329 3992 3994  1   
3330 3992 3995  1   
3331 3997 3998  1   
3332 3997 4002  1   
3333 3998 3999  1   
3334 3998 4000  1   
3335 3998 4001  1   
3336 4003 4004  1   
3337 4003 4008  1   
3338 4004 4005  1   
3339 4004 4006  1   
3340 4004 4007  1   
3341 4009 4010  1   
3342 4009 4014  1   
3343 4010 4011  1   
3344 4010 4012  1   
3345 4010 4013  1   
3346 4015 4016  1   
3347 4015 4020  1   
3348 4016 4017  1   
3349 4016 4018  1   
3350 4016 4019  1   
3351 4021 4022  1   
3352 4021 4026  1   
3353 4022 4023  1   
3354 4022 4024  1   
3355 4022 4025  1   
3356 4027 4028  1   
3357 4027 4032  1   
3358 4028 4029  1   
3359 4028 4030  1   
3360 4028 4031  1   
3361 4033 4034  1   
3362 4033 4038  1   
3363 4034 4035  1   
3364 4034 4036  1   
3365 4034 4037  1   
3366 4039 4040  1   
3367 4039 4044  1   
3368 4040 4041  1   
3369 4040 4042  1   
3370 4040 4043  1   
3371 4045 4046  1   
3372 4045 4050  1   
3373 4046 4047  1   
3374 4046 4048  1   
3375 4046 4049  1   
3376 4051 4052  1   
3377 4051 4056  1   
3378 4052 4053  1   
3379 4052 4054  1   
3380 4052 4055  1   
3381 4057 4058  1   
3382 4057 4062  1   
3383 4058 4059  1   
3384 4058 4060  1   
3385 4058 4061  1   
3386 4063 4064  1   
3387 4063 4068  1   
3388 4064 4065  1   
3389 4064 4066  1   
3390 4064 4067  1   
3391 4069 4070  1   
3392 4069 4074  1   
3393 4070 4071  1   
3394 4070 4072  1   
3395 4070 4073  1   
3396 4075 4076  1   
3397 4075 4080  1   
3398 4076 4077  1   
3399 4076 4078  1   
3400 4076 4079  1   
3401 4081 4082  1   
3402 4081 4086  1   
3403 4082 4083  1   
3404 4082 4084  1   
3405 4082 4085  1   
3406 4087 4088  1   
3407 4087 4092  1   
3408 4088 4089  1   
3409 4088 4090  1   
3410 4088 4091  1   
3411 4093 4094  1   
3412 4093 4098  1   
3413 4094 4095  1   
3414 4094 4096  1   
3415 4094 4097  1   
3416 4099 4100  1   
3417 4099 4104  1   
3418 4100 4101  1   
3419 4100 4102  1   
3420 4100 4103  1   
3421 4105 4106  1   
3422 4105 4110  1   
3423 4106 4107  1   
3424 4106 4108  1   
3425 4106 4109  1   
3426 4111 4112  1   
3427 4111 4116  1   
3428 4112 4113  1   
3429 4112 4114  1   
3430 4112 4115  1   
3431 4117 4118  1   
3432 4117 4122  1   
3433 4118 4119  1   
3434 4118 4120  1   
3435 4118 4121  1   
3436 4123 4124  1   
3437 4123 4128  1   
3438 4124 4125  1   
3439 4124 4126  1   
3440 4124 4127  1   
3441 4129 4130  1   
3442 4129 4134  1   
3443 4130 4131  1   
3444 4130 4132  1   
3445 4130 4133  1   
3446 4135 4136  1   
3447 4135 4140  1   
3448 4136 4137  1   
3449 4136 4138  1   
3450 4136 4139  1   
3451 4141 4142  1   
3452 4141 4146  1   
3453 4142 4143  1   
3454 4142 4144  1   
3455 4142 4145  1   
3456 4147 4148  1   
3457 4147 4152  1   
3458 4148 4149  1   
3459 4148 4150  1   
3460 4148 4151  1   
3461 4153 4154  1   
3462 4153 4158  1   
3463 4154 4155  1   
3464 4154 4156  1   
3465 4154 4157  1   
3466 4159 4160  1   
3467 4159 4164  1   
3468 4160 4161  1   
3469 4160 4162  1   
3470 4160 4163  1   
3471 4165 4166  1   
3472 4165 4170  1   
3473 4166 4167  1   
3474 4166 4168  1   
3475 4166 4169  1   
3476 4171 4172  1   
3477 4171 4176  1   
3478 4172 4173  1   
3479 4172 4174  1   
3480 4172 4175  1   
3481 4177 4178  1   
3482 4177 4182  1   
3483 4178 4179  1   
3484 4178 4180  1   
3485 4178 4181  1   
3486 4183 4184  1   
3487 4183 4188  1   
3488 4184 4185  1   
3489 4184 4186  1   
3490 4184 4187  1   
3491 4189 4190  1   
3492 4189 4194  1   
3493 4190 4191  1   
3494 4190 4192  1   
3495 4190 4193  1   
3496 4195 4196  1   
3497 4195 4200  1   
3498 4196 4197  1   
3499 4196 4198  1   
3500 4196 4199  1   
3501 4201 4202  1   
3502 4201 4206  1   
3503 4202 4203  1   
3504 4202 4204  1   
3505 4202 4205  1   
3506 4207 4208  1   
3507 4207 4212  1   
3508 4208 4209  1   
3509 4208 4210  1   
3510 4208 4211  1   
3511 4213 4214  1   
3512 4213 4218  1   
3513 4214 4215  1   
3514 4214 4216  1   
3515 4214 4217  1   
3516 4219 4220  1   
3517 4219 4224  1   
3518 4220 4221  1   
3519 4220 4222  1   
3520 4220 4223  1   
3521 4225 4226  1   
3522 4225 4230  1   
3523 4226 4227  1   
3524 4226 4228  1   
3525 4226 4229  1   
3526 4231 4232  1   
3527 4231 4236  1   
3528 4232 4233  1   
3529 4232 4234  1   
3530 4232 4235  1   
3531 4237 4238  1   
3532 4237 4242  1   
3533 4238 4239  1   
3534 4238 4240  1   
3535 4238 4241  1   
3536 4243 4244  1   
3537 4243 4248  1   
3538 4244 4245  1   
3539 4244 4246  1   
3540 4244 4247  1   
3541 4249 4250  1   
3542 4249 4254  1   
3543 4250 4251  1   
3544 4250 4252  1   
3545 4250 4253  1   
3546 4255 4256  1   
3547 4255 4260  1   
3548 4256 4257  1   
3549 4256 4258  1   
3550 4256 4259  1   
3551 4261 4262  1   
3552 4261 4266  1   
3553 4262 4263  1   
3554 4262 4264  1   
3555 4262 4265  1   
3556 4267 4268  1   
3557 4267 4272  1   
3558 4268 4269  1   
3559 4268 4270  1   
3560 4268 4271  1   
3561 4273 4274  1   
3562 4273 4278  1   
3563 4274 4275  1   
3564 4274 4276  1   
3565 4274 4277  1   
3566 4279 4280  1   
3567 4279 4284  1   
3568 4280 4281  1   
3569 4280 4282  1   
3570 4280 4283  1   
3571 4285 4286  1   
3572 4285 4290  1   
3573 4286 4287  1   
3574 4286 4288  1   
3575 4286 4289  1   
3576 4291 4292  1   
3577 4291 4296  1   
3578 4292 4293  1   
3579 4292 4294  1   
3580 4292 4295  1   
3581 4297 4298  1   
3582 4297 4302  1   
3583 4298 4299  1   
3584 4298 4300  1   
3585 4298 4301  1   
3586 4303 4304  1   
3587 4303 4308  1   
3588 4304 4305  1   
3589 4304 4306  1   
3590 4304 4307  1   
3591 4309 4310  1   
3592 4309 4314  1   
3593 4310 4311  1   
3594 4310 4312  1   
3595 4310 4313  1   
3596 4315 4316  1   
3597 4315 4320  1   
3598 4316 4317  1   
3599 4316 4318  1   
3600 4316 4319  1   
3601 4321 4322  1   
3602 4321 4326  1   
3603 4322 4323  1   
3604 4322 4324  1   
3605 4322 4325  1   
3606 4327 4328  1   
3607 4327 4332  1   
3608 4328 4329  1   
3609 4328 4330  1   
3610 4328 4331  1   
3611 4333 4334  1   
3612 4333 4338  1   
3613 4334 4335  1   
3614 4334 4336  1   
3615 4334 4337  1   
3616 4339 4340  1   
3617 4339 4344  1   
3618 4340 4341  1   
3619 4340 4342  1   
3620 4340 4343  1   
3621 4345 4346  1   
3622 4345 4350  1   
3623 4346 4347  1   
3624 4346 4348  1   
3625 4346 4349  1   
3626 4351 4352  1   
3627 4351 4356  1   
3628 4352 4353  1   
3629 4352 4354  1   
3630 4352 4355  1   
3631 4357 4358  1   
3632 4357 4362  1   
3633 4358 4359  1   
3634 4358 4360  1   
3635 4358 4361  1   
3636 4363 4364  1   
3637 4363 4368  1   
3638 4364 4365  1   
3639 4364 4366  1   
3640 4364 4367  1   
3641 4369 4370  1   
3642 4369 4374  1   
3643 4370 4371  1   
3644 4370 4372  1   
3645 4370 4373  1   
3646 4375 4376  1   
3647 4375 4380  1   
3648 4376 4377  1   
3649 4376 4378  1   
3650 4376 4379  1   
3651 4381 4382  1   
3652 4381 4386  1   
3653 4382 4383  1   
3654 4382 4384  1   
3655 4382 4385  1   
3656 4387 4388  1   
3657 4387 4392  1   
3658 4388 4389  1   
3659 4388 4390  1   
3660 4388 4391  1   
3661 4393 4394  1   
3662 4393 4398  1   
3663 4394 4395  1   
3664 4394 4396  1   
3665 4394 4397  1   
3666 4399 4400  1   
3667 4399 4404  1   
3668 4400 4401  1   
3669 4400 4402  1   
3670 4400 4403  1   
3671 4405 4406  1   
3672 4405 4410  1   
3673 4406 4407  1   
3674 4406 4408  1   
3675 4406 4409  1   
3676 4411 4412  1   
3677 4411 4416  1   
3678 4412 4413  1   
3679 4412 4414  1   
3680 4412 4415  1   
3681 4417 4418  1   
3682 4417 4422  1   
3683 4418 4419  1   
3684 4418 4420  1   
3685 4418 4421  1   
3686 4423 4424  1   
3687 4423 4428  1   
3688 4424 4425  1   
3689 4424 4426  1   
3690 4424 4427  1   
3691 4429 4430  1   
3692 4429 4434  1   
3693 4430 4431  1   
3694 4430 4432  1   
3695 4430 4433  1   
3696 4435 4436  1   
3697 4435 4440  1   
3698 4436 4437  1   
3699 4436 4438  1   
3700 4436 4439  1   
3701 4441 4442  1   
3702 4441 4446  1   
3703 4442 4443  1   
3704 4442 4444  1   
3705 4442 4445  1   
3706 4447 4448  1   
3707 4447 4452  1   
3708 4448 4449  1   
3709 4448 4450  1   
3710 4448 4451  1   
3711 4453 4454  1   
3712 4453 4458  1   
3713 4454 4455  1   
3714 4454 4456  1   
3715 4454 4457  1   
3716 4459 4460  1   
3717 4459 4464  1   
3718 4460 4461  1   
3719 4460 4462  1   
3720 4460 4463  1   
3721 4465 4466  1   
3722 4465 4470  1   
3723 4466 4467  1   
3724 4466 4468  1   
3725 4466 4469  1   
3726 4471 4472  1   
3727 4471 4476  1   
3728 4472 4473  1   
3729 4472 4474  1   
3730 4472 4475  1   
3731 4477 4478  1   
3732 4477 4482  1   
3733 4478 4479  1   
3734 4478 4480  1   
3735 4478 4481  1   
3736 4483 4484  1   
3737 4483 4488  1   
3738 4484 4485  1   
3739 4484 4486  1   
3740 4484 4487  1   
3741 4489 4490  1   
3742 4489 4494  1   
3743 4490 4491  1   
3744 4490 4492  1   
3745 4490 4493  1   
3746 4495 4496  1   
3747 4495 4500  1   
3748 4496 4497  1   
3749 4496 4498  1   
3750 4496 4499  1   
3751 4501 4502  1   
3752 4501 4506  1   
3753 4502 4503  1   
3754 4502 4504  1   
3755 4502 4505  1   
3756 4507 4508  1   
3757 4507 4512  1   
3758 4508 4509  1   
3759 4508 4510  1   
3760 4508 4511  1   
3761 4513 4514  1   
3762 4513 4518  1   
3763 4514 4515  1   
3764 4514 4516  1   
3765 4514 4517  1   
3766 4519 4520  1   
3767 4519 4524  1   
3768 4520 4521  1   
3769 4520 4522  1   
3770 4520 4523  1   
3771 4525 4526  1   
3772 4525 4530  1   
3773 4526 4527  1   
3774 4526 4528  1   
3775 4526 4529  1   
3776 4531 4532  1   
3777 4531 4536  1   
3778 4532 4533  1   
3779 4532 4534  1   
3780 4532 4535  1   
3781 4537 4538  1   
3782 4537 4542  1   
3783 4538 4539  1   
3784 4538 4540  1   
3785 4538 4541  1   
3786 4543 4544  1   
3787 4543 4548  1   
3788 4544 4545  1   
3789 4544 4546  1   
3790 4544 4547  1   
3791 4549 4550  1   
3792 4549 4554  1   
3793 4550 4551  1   
3794 4550 4552  1   
3795 4550 4553  1   
3796 4555 4556  1   
3797 4555 4560  1   
3798 4556 4557  1   
3799 4556 4558  1   
3800 4556 4559  1   
3801 4561 4562  1   
3802 4561 4566  1   
3803 4562 4563  1   
3804 4562 4564  1   
3805 4562 4565  1   
3806 4567 4568  1   
3807 4567 4572  1   
3808 4568 4569  1   
3809 4568 4570  1   
3810 4568 4571  1   
3811 4573 4574  1   
3812 4573 4578  1   
3813 4574 4575  1   
3814 4574 4576  1   
3815 4574 4577  1   
3816 4579 4580  1   
3817 4579 4584  1   
3818 4580 4581  1   
3819 4580 4582  1   
3820 4580 4583  1   
3821 4585 4586  1   
3822 4585 4590  1   
3823 4586 4587  1   
3824 4586 4588  1   
3825 4586 4589  1   
3826 4591 4592  1   
3827 4591 4596  1   
3828 4592 4593  1   
3829 4592 4594  1   
3830 4592 4595  1   
3831 4597 4598  1   
3832 4597 4602  1   
3833 4598 4599  1   
3834 4598 4600  1   
3835 4598 4601  1   
@<TRIPOS>SUBSTRUCTURE
  1 MOH    2 GROUP 4 **** **** 0
  2 MOH    7 GROUP 4 **** **** 0
  3 MOH   14 GROUP 4 **** **** 0
  4 MOH   20 GROUP 4 **** **** 0
  5 MOH   26 GROUP 4 **** **** 0
  6 MOH   31 GROUP 4 **** **** 0
  7 MOH   38 GROUP 4 **** **** 0
  8 MOH   43 GROUP 4 **** **** 0
  9 MOH   49 GROUP 4 **** **** 0
 10 MOH   56 GROUP 4 **** **** 0
 11 MOH   61 GROUP 4 **** **** 0
 12 MOH   68 GROUP 4 **** **** 0
 13 MOH   73 GROUP 4 **** **** 0
 14 MOH   80 GROUP 4 **** **** 0
 15 MOH   86 GROUP 4 **** **** 0
 16 MOH   91 GROUP 4 **** **** 0
 17 MOH   98 GROUP 4 **** **** 0
 18 MOH  103 GROUP 4 **** **** 0
 19 MOH  109 GROUP 4 **** **** 0
 20 MOH  115 GROUP 4 **** **** 0
 21 MOH  121 GROUP 4 **** **** 0
 22 MOH  128 GROUP 4 **** **** 0
 23 MOH  134 GROUP 4 **** **** 0
 24 MOH  140 GROUP 4 **** **** 0
 25 MOH  145 GROUP 4 **** **** 0
 26 MOH  152 GROUP 4 **** **** 0
 27 MOH  157 GROUP 4 **** **** 0
 28 MOH  164 GROUP 4 **** **** 0
 29 MOH  169 GROUP 4 **** **** 0
 30 MOH  175 GROUP 4 **** **** 0
 31 MOH  181 GROUP 4 **** **** 0
 32 MOH  188 GROUP 4 **** **** 0
 33 MOH  193 GROUP 4 **** **** 0
 34 MOH  200 GROUP 4 **** **** 0
 35 MOH  205 GROUP 4 **** **** 0
 36 MOH  212 GROUP 4 **** **** 0
 37 MOH  218 GROUP 4 **** **** 0
 38 MOH  224 GROUP 4 **** **** 0
 39 MOH  229 GROUP 4 **** **** 0
 40 MOH  236 GROUP 4 **** **** 0
 41 MOH  241 GROUP 4 **** **** 0
 42 MOH  248 GROUP 4 **** **** 0
 43 MOH  254 GROUP 4 **** **** 0
 44 MOH  260 GROUP 4 **** **** 0
 45 MOH  266 GROUP 4 **** **** 0
 46 MOH  272 GROUP 4 **** **** 0
 47 MOH  277 GROUP 4 **** **** 0
 48 MOH  284 GROUP 4 **** **** 0
 49 MOH  289 GROUP 4 **** **** 0
 50 MOH  295 GROUP 4 **** **** 0
 51 MOH  302 GROUP 4 **** **** 0
 52 MOH  307 GROUP 4 **** **** 0
 53 MOH  313 GROUP 4 **** **** 0
 54 MOH  319 GROUP 4 **** **** 0
 55 MOH  325 GROUP 4 **** **** 0
 56 MOH  332 GROUP 4 **** **** 0
 57 MOH  337 GROUP 4 **** **** 0
 58 MOH  343 GROUP 4 **** **** 0
 59 MOH  350 GROUP 4 **** **** 0
 60 MOH  355 GROUP 4 **** **** 0
 61 MOH  361 GROUP 4 **** **** 0
 62 MOH  368 GROUP 4 **** **** 0
 63 MOH  373 GROUP 4 **** **** 0
 64 MOH  380 GROUP 4 **** **** 0
 65 MOH  385 GROUP 4 **** **** 0
 66 MOH  392 GROUP 4 **** **** 0
 67 MOH  398 GROUP 4 **** **** 0
 68 MOH  404 GROUP 4 **** **** 0
 69 MOH  410 GROUP 4 **** **** 0
 70 MOH  416 GROUP 4 **** **** 0
 71 MOH  421 GROUP 4 **** **** 0
 72 MOH  428 GROUP 4 **** **** 0
 73 MOH  433 GROUP 4 **** **** 0
 74 MOH  439 GROUP 4 **** **** 0
 75 MOH  445 GROUP 4 **** **** 0
 76 MOH  451 GROUP 4 **** **** 0
 77 MOH  457 GROUP 4 **** **** 0
 78 MOH  464 GROUP 4 **** **** 0
 79 MOH  470 GROUP 4 **** **** 0
 80 MOH  475 GROUP 4 **** **** 0
 81 MOH  481 GROUP 4 **** **** 0
 82 MOH  487 GROUP 4 **** **** 0
 83 MOH  494 GROUP 4 **** **** 0
 84 MOH  499 GROUP 4 **** **** 0
 85 MOH  505 GROUP 4 **** **** 0
 86 MOH  512 GROUP 4 **** **** 0
 87 MOH  517 GROUP 4 **** **** 0
 88 MOH  523 GROUP 4 **** **** 0
 89 MOH  529 GROUP 4 **** **** 0
 90 MOH  536 GROUP 4 **** **** 0
 91 MOH  542 GROUP 4 **** **** 0
 92 MOH  547 GROUP 4 **** **** 0
 93 MOH  553 GROUP 4 **** **** 0
 94 MOH  560 GROUP 4 **** **** 0
 95 MOH  566 GROUP 4 **** **** 0
 96 MOH  572 GROUP 4 **** **** 0
 97 MOH  578 GROUP 4 **** **** 0
 98 MOH  584 GROUP 4 **** **** 0
 99 MOH  589 GROUP 4 **** **** 0
100 MOH  596 GROUP 4 **** **** 0
101 MOH  602 GROUP 4 **** **** 0
102 MOH  607 GROUP 4 **** **** 0
103 MOH  614 GROUP 4 **** **** 0
104 MOH  619 GROUP 4 **** **** 0
105 MOH  625 GROUP 4 **** **** 0
106 MOH  631 GROUP 4 **** **** 0
107 MOH  638 GROUP 4 **** **** 0
108 MOH  643 GROUP 4 **** **** 0
109 MOH  650 GROUP 4 **** **** 0
110 MOH  656 GROUP 4 **** **** 0
111 MOH  661 GROUP 4 **** **** 0
112 MOH  667 GROUP 4 **** **** 0
113 MOH  674 GROUP 4 **** **** 0
114 MOH  679 GROUP 4 **** **** 0
115 MOH  685 GROUP 4 **** **** 0
116 MOH  691 GROUP 4 **** **** 0
117 MOH  697 GROUP 4 **** **** 0
118 MOH  704 GROUP 4 **** **** 0
119 MOH  710 GROUP 4 **** **** 0
120 MOH  715 GROUP 4 **** **** 0
121 MOH  721 GROUP 4 **** **** 0
122 MOH  728 GROUP 4 **** **** 0
123 MOH  733 GROUP 4 **** **** 0
124 MOH  739 GROUP 4 **** **** 0
125 MOH  745 GROUP 4 **** **** 0
126 MOH  751 GROUP 4 **** **** 0
127 MOH  757 GROUP 4 **** **** 0
128 MOH  763 GROUP 4 **** **** 0
129 MOH  770 GROUP 4 **** **** 0
130 MOH  775 GROUP 4 **** **** 0
131 MOH  781 GROUP 4 **** **** 0
132 MOH  787 GROUP 4 **** **** 0
133 MOH  793 GROUP 4 **** **** 0
134 MOH  799 GROUP 4 **** **** 0
135 MOH  806 GROUP 4 **** **** 0
136 MOH  811 GROUP 4 **** **** 0
137 MOH  818 GROUP 4 **** **** 0
138 MOH  823 GROUP 4 **** **** 0
139 MOH  829 GROUP 4 **** **** 0
140 MOH  836 GROUP 4 **** **** 0
141 MOH  841 GROUP 4 **** **** 0
142 MOH  848 GROUP 4 **** **** 0
143 MOH  853 GROUP 4 **** **** 0
144 MOH  859 GROUP 4 **** **** 0
145 MOH  866 GROUP 4 **** **** 0
146 MOH  871 GROUP 4 **** **** 0
147 MOH  877 GROUP 4 **** **** 0
148 MOH  884 GROUP 4 **** **** 0
149 MOH  890 GROUP 4 **** **** 0
150 MOH  895 GROUP 4 **** **** 0
151 MOH  902 GROUP 4 **** **** 0
152 MOH  907 GROUP 4 **** **** 0
153 MOH  913 GROUP 4 **** **** 0
154 MOH  920 GROUP 4 **** **** 0
155 MOH  926 GROUP 4 **** **** 0
156 MOH  931 GROUP 4 **** **** 0
157 MOH  938 GROUP 4 **** **** 0
158 MOH  943 GROUP 4 **** **** 0
159 MOH  949 GROUP 4 **** **** 0
160 MOH  955 GROUP 4 **** **** 0
161 MOH  962 GROUP 4 **** **** 0
162 MOH  968 GROUP 4 **** **** 0
163 MOH  974 GROUP 4 **** **** 0
164 MOH  980 GROUP 4 **** **** 0
165 MOH  985 GROUP 4 **** **** 0
166 MOH  991 GROUP 4 **** **** 0
167 MOH  997 GROUP 4 **** **** 0
168 MOH 1004 GROUP 4 **** **** 0
169 MOH 1009 GROUP 4 **** **** 0
170 MOH 1015 GROUP 4 **** **** 0
171 MOH 1022 GROUP 4 **** **** 0
172 MOH 1028 GROUP 4 **** **** 0
173 MOH 1034 GROUP 4 **** **** 0
174 MOH 1040 GROUP 4 **** **** 0
175 MOH 1045 GROUP 4 **** **** 0
176 MOH 1051 GROUP 4 **** **** 0
177 MOH 1057 GROUP 4 **** **** 0
178 MOH 1064 GROUP 4 **** **** 0
179 MOH 1070 GROUP 4 **** **** 0
180 MOH 1076 GROUP 4 **** **** 0
181 MOH 1082 GROUP 4 **** **** 0
182 MOH 1088 GROUP 4 **** **** 0
183 MOH 1093 GROUP 4 **** **** 0
184 MOH 1099 GROUP 4 **** **** 0
185 MOH 1106 GROUP 4 **** **** 0
186 MOH 1111 GROUP 4 **** **** 0
187 MOH 1118 GROUP 4 **** **** 0
188 MOH 1123 GROUP 4 **** **** 0
189 MOH 1129 GROUP 4 **** **** 0
190 MOH 1135 GROUP 4 **** **** 0
191 MOH 1142 GROUP 4 **** **** 0
192 MOH 1147 GROUP 4 **** **** 0
193 MOH 1153 GROUP 4 **** **** 0
194 MOH 1159 GROUP 4 **** **** 0
195 MOH 1166 GROUP 4 **** **** 0
196 MOH 1171 GROUP 4 **** **** 0
197 MOH 1177 GROUP 4 **** **** 0
198 MOH 1183 GROUP 4 **** **** 0
199 MOH 1190 GROUP 4 **** **** 0
200 MOH 1195 GROUP 4 **** **** 0
201 MOH 1201 GROUP 4 **** **** 0
202 MOH 1207 GROUP 4 **** **** 0
203 MOH 1214 GROUP 4 **** **** 0
204 MOH 1220 GROUP 4 **** **** 0
205 MOH 1225 GROUP 4 **** **** 0
206 MOH 1232 GROUP 4 **** **** 0
207 MOH 1237 GROUP 4 **** **** 0
208 MOH 1243 GROUP 4 **** **** 0
209 MOH 1249 GROUP 4 **** **** 0
210 MOH 1255 GROUP 4 **** **** 0
211 MOH 1261 GROUP 4 **** **** 0
212 MOH 1267 GROUP 4 **** **** 0
213 MOH 1273 GROUP 4 **** **** 0
214 MOH 1279 GROUP 4 **** **** 0
215 MOH 1286 GROUP 4 **** **** 0
216 MOH 1292 GROUP 4 **** **** 0
217 MOH 1297 GROUP 4 **** **** 0
218 MOH 1304 GROUP 4 **** **** 0
219 MOH 1310 GROUP 4 **** **** 0
220 MOH 1315 GROUP 4 **** **** 0
221 MOH 1321 GROUP 4 **** **** 0
222 MOH 1328 GROUP 4 **** **** 0
223 MOH 1334 GROUP 4 **** **** 0
224 MOH 1339 GROUP 4 **** **** 0
225 MOH 1345 GROUP 4 **** **** 0
226 MOH 1351 GROUP 4 **** **** 0
227 MOH 1357 GROUP 4 **** **** 0
228 MOH 1363 GROUP 4 **** **** 0
229 MOH 1370 GROUP 4 **** **** 0
230 MOH 1375 GROUP 4 **** **** 0
231 MOH 1381 GROUP 4 **** **** 0
232 MOH 1388 GROUP 4 **** **** 0
233 MOH 1393 GROUP 4 **** **** 0
234 MOH 1400 GROUP 4 **** **** 0
235 MOH 1405 GROUP 4 **** **** 0
236 MOH 1412 GROUP 4 **** **** 0
237 MOH 1418 GROUP 4 **** **** 0
238 MOH 1423 GROUP 4 **** **** 0
239 MOH 1430 GROUP 4 **** **** 0
240 MOH 1436 GROUP 4 **** **** 0
241 MOH 1441 GROUP 4 **** **** 0
242 MOH 1448 GROUP 4 **** **** 0
243 MOH 1454 GROUP 4 **** **** 0
244 MOH 1459 GROUP 4 **** **** 0
245 MOH 1465 GROUP 4 **** **** 0
246 MOH 1471 GROUP 4 **** **** 0
247 MOH 1477 GROUP 4 **** **** 0
248 MOH 1484 GROUP 4 **** **** 0
249 MOH 1489 GROUP 4 **** **** 0
250 MOH 1496 GROUP 4 **** **** 0
251 MOH 1502 GROUP 4 **** **** 0
252 MOH 1507 GROUP 4 **** **** 0
253 MOH 1514 GROUP 4 **** **** 0
254 MOH 1520 GROUP 4 **** **** 0
255 MOH 1526 GROUP 4 **** **** 0
256 MOH 1531 GROUP 4 **** **** 0
257 MOH 1537 GROUP 4 **** **** 0
258 MOH 1544 GROUP 4 **** **** 0
259 MOH 1549 GROUP 4 **** **** 0
260 MOH 1555 GROUP 4 **** **** 0
261 MOH 1561 GROUP 4 **** **** 0
262 MOH 1567 GROUP 4 **** **** 0
263 MOH 1574 GROUP 4 **** **** 0
264 MOH 1579 GROUP 4 **** **** 0
265 MOH 1585 GROUP 4 **** **** 0
266 MOH 1591 GROUP 4 **** **** 0
267 MOH 1597 GROUP 4 **** **** 0
268 MOH 1603 GROUP 4 **** **** 0
269 MOH 1609 GROUP 4 **** **** 0
270 MOH 1616 GROUP 4 **** **** 0
271 MOH 1621 GROUP 4 **** **** 0
272 MOH 1627 GROUP 4 **** **** 0
273 MOH 1634 GROUP 4 **** **** 0
274 MOH 1639 GROUP 4 **** **** 0
275 MOH 1645 GROUP 4 **** **** 0
276 MOH 1651 GROUP 4 **** **** 0
277 MOH 1658 GROUP 4 **** **** 0
278 MOH 1663 GROUP 4 **** **** 0
279 MOH 1669 GROUP 4 **** **** 0
280 MOH 1676 GROUP 4 **** **** 0
281 MOH 1681 GROUP 4 **** **** 0
282 MOH 1688 GROUP 4 **** **** 0
283 MOH 1693 GROUP 4 **** **** 0
284 MOH 1700 GROUP 4 **** **** 0
285 MOH 1705 GROUP 4 **** **** 0
286 MOH 1711 GROUP 4 **** **** 0
287 MOH 1718 GROUP 4 **** **** 0
288 MOH 1724 GROUP 4 **** **** 0
289 MOH 1730 GROUP 4 **** **** 0
290 MOH 1735 GROUP 4 **** **** 0
291 MOH 1741 GROUP 4 **** **** 0
292 MOH 1747 GROUP 4 **** **** 0
293 MOH 1753 GROUP 4 **** **** 0
294 MOH 1759 GROUP 4 **** **** 0
295 MOH 1765 GROUP 4 **** **** 0
296 MOH 1771 GROUP 4 **** **** 0
297 MOH 1778 GROUP 4 **** **** 0
298 MOH 1783 GROUP 4 **** **** 0
299 MOH 1789 GROUP 4 **** **** 0
300 MOH 1795 GROUP 4 **** **** 0
301 MOH 1801 GROUP 4 **** **** 0
302 MOH 1807 GROUP 4 **** **** 0
303 MOH 1814 GROUP 4 **** **** 0
304 MOH 1819 GROUP 4 **** **** 0
305 MOH 1825 GROUP 4 **** **** 0
306 MOH 1832 GROUP 4 **** **** 0
307 MOH 1837 GROUP 4 **** **** 0
308 MOH 1844 GROUP 4 **** **** 0
309 MOH 1849 GROUP 4 **** **** 0
310 MOH 1856 GROUP 4 **** **** 0
311 MOH 1862 GROUP 4 **** **** 0
312 MOH 1868 GROUP 4 **** **** 0
313 MOH 1873 GROUP 4 **** **** 0
314 MOH 1880 GROUP 4 **** **** 0
315 MOH 1885 GROUP 4 **** **** 0
316 MOH 1892 GROUP 4 **** **** 0
317 MOH 1897 GROUP 4 **** **** 0
318 MOH 1903 GROUP 4 **** **** 0
319 MOH 1909 GROUP 4 **** **** 0
320 MOH 1915 GROUP 4 **** **** 0
321 MOH 1922 GROUP 4 **** **** 0
322 MOH 1928 GROUP 4 **** **** 0
323 MOH 1934 GROUP 4 **** **** 0
324 MOH 1940 GROUP 4 **** **** 0
325 MOH 1946 GROUP 4 **** **** 0
326 MOH 1951 GROUP 4 **** **** 0
327 MOH 1957 GROUP 4 **** **** 0
328 MOH 1963 GROUP 4 **** **** 0
329 MOH 1970 GROUP 4 **** **** 0
330 MOH 1975 GROUP 4 **** **** 0
331 MOH 1981 GROUP 4 **** **** 0
332 MOH 1987 GROUP 4 **** **** 0
333 MOH 1993 GROUP 4 **** **** 0
334 MOH 2000 GROUP 4 **** **** 0
335 MOH 2006 GROUP 4 **** **** 0
336 MOH 2012 GROUP 4 **** **** 0
337 MOH 2017 GROUP 4 **** **** 0
338 MOH 2024 GROUP 4 **** **** 0
339 MOH 2029 GROUP 4 **** **** 0
340 MOH 2036 GROUP 4 **** **** 0
341 MOH 2041 GROUP 4 **** **** 0
342 MOH 2047 GROUP 4 **** **** 0
343 MOH 2053 GROUP 4 **** **** 0
344 MOH 2059 GROUP 4 **** **** 0
345 MOH 2065 GROUP 4 **** **** 0
346 MOH 2071 GROUP 4 **** **** 0
347 MOH 2078 GROUP 4 **** **** 0
348 MOH 2083 GROUP 4 **** **** 0
349 MOH 2090 GROUP 4 **** **** 0
350 MOH 2095 GROUP 4 **** **** 0
351 MOH 2101 GROUP 4 **** **** 0
352 MOH 2107 GROUP 4 **** **** 0
353 MOH 2114 GROUP 4 **** **** 0
354 MOH 2119 GROUP 4 **** **** 0
355 MOH 2126 GROUP 4 **** **** 0
356 MOH 2132 GROUP 4 **** **** 0
357 MOH 2137 GROUP 4 **** **** 0
358 MOH 2144 GROUP 4 **** **** 0
359 MOH 2149 GROUP 4 **** **** 0
360 MOH 2155 GROUP 4 **** **** 0
361 MOH 2162 GROUP 4 **** **** 0
362 MOH 2167 GROUP 4 **** **** 0
363 MOH 2174 GROUP 4 **** **** 0
364 MOH 2180 GROUP 4 **** **** 0
365 MOH 2186 GROUP 4 **** **** 0
366 MOH 2192 GROUP 4 **** **** 0
367 MOH 2198 GROUP 4 **** **** 0
368 MOH 2203 GROUP 4 **** **** 0
369 MOH 2210 GROUP 4 **** **** 0
370 MOH 2215 GROUP 4 **** **** 0
371 MOH 2222 GROUP 4 **** **** 0
372 MOH 2227 GROUP 4 **** **** 0
373 MOH 2233 GROUP 4 **** **** 0
374 MOH 2239 GROUP 4 **** **** 0
375 MOH 2245 GROUP 4 **** **** 0
376 MOH 2251 GROUP 4 **** **** 0
377 MOH 2257 GROUP 4 **** **** 0
378 MOH 2263 GROUP 4 **** **** 0
379 MOH 2269 GROUP 4 **** **** 0
380 MOH 2276 GROUP 4 **** **** 0
381 MOH 2282 GROUP 4 **** **** 0
382 MOH 2287 GROUP 4 **** **** 0
383 MOH 2293 GROUP 4 **** **** 0
384 MOH 2300 GROUP 4 **** **** 0
385 MOH 2306 GROUP 4 **** **** 0
386 MOH 2311 GROUP 4 **** **** 0
387 MOH 2317 GROUP 4 **** **** 0
388 MOH 2324 GROUP 4 **** **** 0
389 MOH 2329 GROUP 4 **** **** 0
390 MOH 2336 GROUP 4 **** **** 0
391 MOH 2341 GROUP 4 **** **** 0
392 MOH 2347 GROUP 4 **** **** 0
393 MOH 2353 GROUP 4 **** **** 0
394 MOH 2359 GROUP 4 **** **** 0
395 MOH 2365 GROUP 4 **** **** 0
396 MOH 2372 GROUP 4 **** **** 0
397 MOH 2378 GROUP 4 **** **** 0
398 MOH 2384 GROUP 4 **** **** 0
399 MOH 2389 GROUP 4 **** **** 0
400 MOH 2396 GROUP 4 **** **** 0
401 MOH 2402 GROUP 4 **** **** 0
402 MOH 2408 GROUP 4 **** **** 0
403 MOH 2413 GROUP 4 **** **** 0
404 MOH 2419 GROUP 4 **** **** 0
405 MOH 2426 GROUP 4 **** **** 0
406 MOH 2432 GROUP 4 **** **** 0
407 MOH 2437 GROUP 4 **** **** 0
408 MOH 2443 GROUP 4 **** **** 0
409 MOH 2450 GROUP 4 **** **** 0
410 MOH 2455 GROUP 4 **** **** 0
411 MOH 2461 GROUP 4 **** **** 0
412 MOH 2468 GROUP 4 **** **** 0
413 MOH 2474 GROUP 4 **** **** 0
414 MOH 2480 GROUP 4 **** **** 0
415 MOH 2485 GROUP 4 **** **** 0
416 MOH 2491 GROUP 4 **** **** 0
417 MOH 2497 GROUP 4 **** **** 0
418 MOH 2503 GROUP 4 **** **** 0
419 MOH 2509 GROUP 4 **** **** 0
420 MOH 2515 GROUP 4 **** **** 0
421 MOH 2521 GROUP 4 **** **** 0
422 MOH 2527 GROUP 4 **** **** 0
423 MOH 2533 GROUP 4 **** **** 0
424 MOH 2540 GROUP 4 **** **** 0
425 MOH 2546 GROUP 4 **** **** 0
426 MOH 2552 GROUP 4 **** **** 0
427 MOH 2557 GROUP 4 **** **** 0
428 MOH 2564 GROUP 4 **** **** 0
429 MOH 2570 GROUP 4 **** **** 0
430 MOH 2575 GROUP 4 **** **** 0
431 MOH 2581 GROUP 4 **** **** 0
432 MOH 2588 GROUP 4 **** **** 0
433 MOH 2594 GROUP 4 **** **** 0
434 MOH 2599 GROUP 4 **** **** 0
435 MOH 2605 GROUP 4 **** **** 0
436 MOH 2611 GROUP 4 **** **** 0
437 MOH 2617 GROUP 4 **** **** 0
438 MOH 2624 GROUP 4 **** **** 0
439 MOH 2630 GROUP 4 **** **** 0
440 MOH 2635 GROUP 4 **** **** 0
441 MOH 2642 GROUP 4 **** **** 0
442 MOH 2648 GROUP 4 **** **** 0
443 MOH 2654 GROUP 4 **** **** 0
444 MOH 2659 GROUP 4 **** **** 0
445 MOH 2665 GROUP 4 **** **** 0
446 MOH 2672 GROUP 4 **** **** 0
447 MOH 2677 GROUP 4 **** **** 0
448 MOH 2684 GROUP 4 **** **** 0
449 MOH 2690 GROUP 4 **** **** 0
450 MOH 2695 GROUP 4 **** **** 0
451 MOH 2702 GROUP 4 **** **** 0
452 MOH 2707 GROUP 4 **** **** 0
453 MOH 2713 GROUP 4 **** **** 0
454 MOH 2719 GROUP 4 **** **** 0
455 MOH 2726 GROUP 4 **** **** 0
456 MOH 2731 GROUP 4 **** **** 0
457 MOH 2738 GROUP 4 **** **** 0
458 MOH 2744 GROUP 4 **** **** 0
459 MOH 2749 GROUP 4 **** **** 0
460 MOH 2755 GROUP 4 **** **** 0
461 MOH 2762 GROUP 4 **** **** 0
462 MOH 2767 GROUP 4 **** **** 0
463 MOH 2773 GROUP 4 **** **** 0
464 MOH 2780 GROUP 4 **** **** 0
465 MOH 2786 GROUP 4 **** **** 0
466 MOH 2791 GROUP 4 **** **** 0
467 MOH 2798 GROUP 4 **** **** 0
468 MOH 2804 GROUP 4 **** **** 0
469 MOH 2809 GROUP 4 **** **** 0
470 MOH 2816 GROUP 4 **** **** 0
471 MOH 2821 GROUP 4 **** **** 0
472 MOH 2827 GROUP 4 **** **** 0
473 MOH 2834 GROUP 4 **** **** 0
474 MOH 2839 GROUP 4 **** **** 0
475 MOH 2845 GROUP 4 **** **** 0
476 MOH 2852 GROUP 4 **** **** 0
477 MOH 2858 GROUP 4 **** **** 0
478 MOH 2863 GROUP 4 **** **** 0
479 MOH 2869 GROUP 4 **** **** 0
480 MOH 2875 GROUP 4 **** **** 0
481 MOH 2881 GROUP 4 **** **** 0
482 MOH 2887 GROUP 4 **** **** 0
483 MOH 2894 GROUP 4 **** **** 0
484 MOH 2899 GROUP 4 **** **** 0
485 MOH 2906 GROUP 4 **** **** 0
486 MOH 2911 GROUP 4 **** **** 0
487 MOH 2918 GROUP 4 **** **** 0
488 MOH 2924 GROUP 4 **** **** 0
489 MOH 2929 GROUP 4 **** **** 0
490 MOH 2935 GROUP 4 **** **** 0
491 MOH 2941 GROUP 4 **** **** 0
492 MOH 2947 GROUP 4 **** **** 0
493 MOH 2954 GROUP 4 **** **** 0
494 MOH 2959 GROUP 4 **** **** 0
495 MOH 2965 GROUP 4 **** **** 0
496 MOH 2972 GROUP 4 **** **** 0
497 MOH 2978 GROUP 4 **** **** 0
498 MOH 2984 GROUP 4 **** **** 0
499 MOH 2990 GROUP 4 **** **** 0
500 MOH 2995 GROUP 4 **** **** 0
501 MOH 3002 GROUP 4 **** **** 0
502 MOH 3007 GROUP 4 **** **** 0
503 MOH 3014 GROUP 4 **** **** 0
504 MOH 3019 GROUP 4 **** **** 0
505 MOH 3025 GROUP 4 **** **** 0
506 MOH 3031 GROUP 4 **** **** 0
507 MOH 3037 GROUP 4 **** **** 0
508 MOH 3044 GROUP 4 **** **** 0
509 MOH 3049 GROUP 4 **** **** 0
510 MOH 3056 GROUP 4 **** **** 0
511 MOH 3061 GROUP 4 **** **** 0
512 MOH 3067 GROUP 4 **** **** 0
513 MOH 3073 GROUP 4 **** **** 0
514 MOH 3079 GROUP 4 **** **** 0
515 MOH 3085 GROUP 4 **** **** 0
516 MOH 3091 GROUP 4 **** **** 0
517 MOH 3097 GROUP 4 **** **** 0
518 MOH 3104 GROUP 4 **** **** 0
519 MOH 3109 GROUP 4 **** **** 0
520 MOH 3115 GROUP 4 **** **** 0
521 MOH 3121 GROUP 4 **** **** 0
522 MOH 3128 GROUP 4 **** **** 0
523 MOH 3133 GROUP 4 **** **** 0
524 MOH 3140 GROUP 4 **** **** 0
525 MOH 3145 GROUP 4 **** **** 0
526 MOH 3151 GROUP 4 **** **** 0
527 MOH 3158 GROUP 4 **** **** 0
528 MOH 3164 GROUP 4 **** **** 0
529 MOH 3169 GROUP 4 **** **** 0
530 MOH 3175 GROUP 4 **** **** 0
531 MOH 3181 GROUP 4 **** **** 0
532 MOH 3188 GROUP 4 **** **** 0
533 MOH 3193 GROUP 4 **** **** 0
534 MOH 3199 GROUP 4 **** **** 0
535 MOH 3205 GROUP 4 **** **** 0
536 MOH 3211 GROUP 4 **** **** 0
537 MOH 3217 GROUP 4 **** **** 0
538 MOH 3224 GROUP 4 **** **** 0
539 MOH 3230 GROUP 4 **** **** 0
540 MOH 3235 GROUP 4 **** **** 0
541 MOH 3242 GROUP 4 **** **** 0
542 MOH 3247 GROUP 4 **** **** 0
543 MOH 3254 GROUP 4 **** **** 0
544 MOH 3259 GROUP 4 **** **** 0
545 MOH 3266 GROUP 4 **** **** 0
546 MOH 3272 GROUP 4 **** **** 0
547 MOH 3277 GROUP 4 **** **** 0
548 MOH 3284 GROUP 4 **** **** 0
549 MOH 3289 GROUP 4 **** **** 0
550 MOH 3296 GROUP 4 **** **** 0
551 MOH 3302 GROUP 4 **** **** 0
552 MOH 3307 GROUP 4 **** **** 0
553 MOH 3313 GROUP 4 **** **** 0
554 MOH 3320 GROUP 4 **** **** 0
555 MOH 3326 GROUP 4 **** **** 0
556 MOH 3331 GROUP 4 **** **** 0
557 MOH 3338 GROUP 4 **** **** 0
558 MOH 3344 GROUP 4 **** **** 0
559 MOH 3350 GROUP 4 **** **** 0
560 MOH 3355 GROUP 4 **** **** 0
561 MOH 3362 GROUP 4 **** **** 0
562 MOH 3368 GROUP 4 **** **** 0
563 MOH 3374 GROUP 4 **** **** 0
564 MOH 3379 GROUP 4 **** **** 0
565 MOH 3386 GROUP 4 **** **** 0
566 MOH 3391 GROUP 4 **** **** 0
567 MOH 3398 GROUP 4 **** **** 0
568 MOH 3403 GROUP 4 **** **** 0
569 MOH 3410 GROUP 4 **** **** 0
570 MOH 3416 GROUP 4 **** **** 0
571 MOH 3421 GROUP 4 **** **** 0
572 MOH 3428 GROUP 4 **** **** 0
573 MOH 3433 GROUP 4 **** **** 0
574 MOH 3439 GROUP 4 **** **** 0
575 MOH 3446 GROUP 4 **** **** 0
576 MOH 3451 GROUP 4 **** **** 0
577 MOH 3457 GROUP 4 **** **** 0
578 MOH 3463 GROUP 4 **** **** 0
579 MOH 3469 GROUP 4 **** **** 0
580 MOH 3475 GROUP 4 **** **** 0
581 MOH 3481 GROUP 4 **** **** 0
582 MOH 3487 GROUP 4 **** **** 0
583 MOH 3494 GROUP 4 **** **** 0
584 MOH 3500 GROUP 4 **** **** 0
585 MOH 3505 GROUP 4 **** **** 0
586 MOH 3511 GROUP 4 **** **** 0
587 MOH 3517 GROUP 4 **** **** 0
588 MOH 3523 GROUP 4 **** **** 0
589 MOH 3530 GROUP 4 **** **** 0
590 MOH 3535 GROUP 4 **** **** 0
591 MOH 3541 GROUP 4 **** **** 0
592 MOH 3547 GROUP 4 **** **** 0
593 MOH 3554 GROUP 4 **** **** 0
594 MOH 3559 GROUP 4 **** **** 0
595 MOH 3566 GROUP 4 **** **** 0
596 MOH 3571 GROUP 4 **** **** 0
597 MOH 3577 GROUP 4 **** **** 0
598 MOH 3583 GROUP 4 **** **** 0
599 MOH 3589 GROUP 4 **** **** 0
600 MOH 3596 GROUP 4 **** **** 0
601 MOH 3601 GROUP 4 **** **** 0
602 MOH 3607 GROUP 4 **** **** 0
603 MOH 3613 GROUP 4 **** **** 0
604 MOH 3619 GROUP 4 **** **** 0
605 MOH 3626 GROUP 4 **** **** 0
606 MOH 3631 GROUP 4 **** **** 0
607 MOH 3638 GROUP 4 **** **** 0
608 MOH 3643 GROUP 4 **** **** 0
609 MOH 3649 GROUP 4 **** **** 0
610 MOH 3655 GROUP 4 **** **** 0
611 MOH 3662 GROUP 4 **** **** 0
612 MOH 3667 GROUP 4 **** **** 0
613 MOH 3673 GROUP 4 **** **** 0
614 MOH 3679 GROUP 4 **** **** 0
615 MOH 3685 GROUP 4 **** **** 0
616 MOH 3691 GROUP 4 **** **** 0
617 MOH 3698 GROUP 4 **** **** 0
618 MOH 3704 GROUP 4 **** **** 0
619 MOH 3710 GROUP 4 **** **** 0
620 MOH 3715 GROUP 4 **** **** 0
621 MOH 3721 GROUP 4 **** **** 0
622 MOH 3728 GROUP 4 **** **** 0
623 MOH 3733 GROUP 4 **** **** 0
624 MOH 3740 GROUP 4 **** **** 0
625 MOH 3745 GROUP 4 **** **** 0
626 MOH 3751 GROUP 4 **** **** 0
627 MOH 3758 GROUP 4 **** **** 0
628 MOH 3763 GROUP 4 **** **** 0
629 MOH 3769 GROUP 4 **** **** 0
630 MOH 3775 GROUP 4 **** **** 0
631 MOH 3781 GROUP 4 **** **** 0
632 MOH 3787 GROUP 4 **** **** 0
633 MOH 3793 GROUP 4 **** **** 0
634 MOH 3800 GROUP 4 **** **** 0
635 MOH 3806 GROUP 4 **** **** 0
636 MOH 3812 GROUP 4 **** **** 0
637 MOH 3818 GROUP 4 **** **** 0
638 MOH 3823 GROUP 4 **** **** 0
639 MOH 3830 GROUP 4 **** **** 0
640 MOH 3835 GROUP 4 **** **** 0
641 MOH 3841 GROUP 4 **** **** 0
642 MOH 3847 GROUP 4 **** **** 0
643 MOH 3853 GROUP 4 **** **** 0
644 MOH 3860 GROUP 4 **** **** 0
645 MOH 3865 GROUP 4 **** **** 0
646 MOH 3871 GROUP 4 **** **** 0
647 MOH 3878 GROUP 4 **** **** 0
648 MOH 3883 GROUP 4 **** **** 0
649 MOH 3890 GROUP 4 **** **** 0
650 MOH 3896 GROUP 4 **** **** 0
651 MOH 3902 GROUP 4 **** **** 0
652 MOH 3907 GROUP 4 **** **** 0
653 MOH 3913 GROUP 4 **** **** 0
654 MOH 3919 GROUP 4 **** **** 0
655 MOH 3926 GROUP 4 **** **** 0
656 MOH 3931 GROUP 4 **** **** 0
657 MOH 3937 GROUP 4 **** **** 0
658 MOH 3943 GROUP 4 **** **** 0
659 MOH 3949 GROUP 4 **** **** 0
660 MOH 3955 GROUP 4 **** **** 0
661 MOH 3961 GROUP 4 **** **** 0
662 MOH 3968 GROUP 4 **** **** 0
663 MOH 3973 GROUP 4 **** **** 0
664 MOH 3979 GROUP 4 **** **** 0
665 MOH 3985 GROUP 4 **** **** 0
666 MOH 3992 GROUP 4 **** **** 0
667 MOH 3998 GROUP 4 **** **** 0
668 MOH 4003 GROUP 4 **** **** 0
669 MOH 4009 GROUP 4 **** **** 0
670 MOH 4015 GROUP 4 **** **** 0
671 MOH 4021 GROUP 4 **** **** 0
672 MOH 4027 GROUP 4 **** **** 0
673 MOH 4034 GROUP 4 **** **** 0
674 MOH 4039 GROUP 4 **** **** 0
675 MOH 4046 GROUP 4 **** **** 0
676 MOH 4052 GROUP 4 **** **** 0
677 MOH 4058 GROUP 4 **** **** 0
678 MOH 4063 GROUP 4 **** **** 0
679 MOH 4069 GROUP 4 **** **** 0
680 MOH 4075 GROUP 4 **** **** 0
681 MOH 4081 GROUP 4 **** **** 0
682 MOH 4087 GROUP 4 **** **** 0
683 MOH 4093 GROUP 4 **** **** 0
684 MOH 4099 GROUP 4 **** **** 0
685 MOH 4105 GROUP 4 **** **** 0
686 MOH 4111 GROUP 4 **** **** 0
687 MOH 4118 GROUP 4 **** **** 0
688 MOH 4124 GROUP 4 **** **** 0
689 MOH 4130 GROUP 4 **** **** 0
690 MOH 4136 GROUP 4 **** **** 0
691 MOH 4141 GROUP 4 **** **** 0
692 MOH 4148 GROUP 4 **** **** 0
693 MOH 4154 GROUP 4 **** **** 0
694 MOH 4159 GROUP 4 **** **** 0
695 MOH 4165 GROUP 4 **** **** 0
696 MOH 4172 GROUP 4 **** **** 0
697 MOH 4177 GROUP 4 **** **** 0
698 MOH 4183 GROUP 4 **** **** 0
699 MOH 4189 GROUP 4 **** **** 0
700 MOH 4196 GROUP 4 **** **** 0
701 MOH 4201 GROUP 4 **** **** 0
702 MOH 4207 GROUP 4 **** **** 0
703 MOH 4214 GROUP 4 **** **** 0
704 MOH 4219 GROUP 4 **** **** 0
705 MOH 4225 GROUP 4 **** **** 0
706 MOH 4231 GROUP 4 **** **** 0
707 MOH 4238 GROUP 4 **** **** 0
708 MOH 4243 GROUP 4 **** **** 0
709 MOH 4250 GROUP 4 **** **** 0
710 MOH 4256 GROUP 4 **** **** 0
711 MOH 4261 GROUP 4 **** **** 0
712 MOH 4267 GROUP 4 **** **** 0
713 MOH 4273 GROUP 4 **** **** 0
714 MOH 4279 GROUP 4 **** **** 0
715 MOH 4285 GROUP 4 **** **** 0
716 MOH 4292 GROUP 4 **** **** 0
717 MOH 4298 GROUP 4 **** **** 0
718 MOH 4304 GROUP 4 **** **** 0
719 MOH 4310 GROUP 4 **** **** 0
720 MOH 4316 GROUP 4 **** **** 0
721 MOH 4321 GROUP 4 **** **** 0
722 MOH 4327 GROUP 4 **** **** 0
723 MOH 4334 GROUP 4 **** **** 0
724 MOH 4339 GROUP 4 **** **** 0
725 MOH 4345 GROUP 4 **** **** 0
726 MOH 4352 GROUP 4 **** **** 0
727 MOH 4357 GROUP 4 **** **** 0
728 MOH 4364 GROUP 4 **** **** 0
729 MOH 4370 GROUP 4 **** **** 0
730 MOH 4375 GROUP 4 **** **** 0
731 MOH 4382 GROUP 4 **** **** 0
732 MOH 4387 GROUP 4 **** **** 0
733 MOH 4393 GROUP 4 **** **** 0
734 MOH 4400 GROUP 4 **** **** 0
735 MOH 4406 GROUP 4 **** **** 0
736 MOH 4412 GROUP 4 **** **** 0
737 MOH 4417 GROUP 4 **** **** 0
738 MOH 4424 GROUP 4 **** **** 0
739 MOH 4429 GROUP 4 **** **** 0
740 MOH 4436 GROUP 4 **** **** 0
741 MOH 4442 GROUP 4 **** **** 0
742 MOH 4448 GROUP 4 **** **** 0
743 MOH 4453 GROUP 4 **** **** 0
744 MOH 4460 GROUP 4 **** **** 0
745 MOH 4466 GROUP 4 **** **** 0
746 MOH 4472 GROUP 4 **** **** 0
747 MOH 4477 GROUP 4 **** **** 0
748 MOH 4483 GROUP 4 **** **** 0
749 MOH 4489 GROUP 4 **** **** 0
750 MOH 4495 GROUP 4 **** **** 0
751 MOH 4501 GROUP 4 **** **** 0
752 MOH 4508 GROUP 4 **** **** 0
753 MOH 4514 GROUP 4 **** **** 0
754 MOH 4520 GROUP 4 **** **** 0
755 MOH 4526 GROUP 4 **** **** 0
756 MOH 4532 GROUP 4 **** **** 0
757 MOH 4537 GROUP 4 **** **** 0
758 MOH 4543 GROUP 4 **** **** 0
759 MOH 4550 GROUP 4 **** **** 0
760 MOH 4555 GROUP 4 **** **** 0
761 MOH 4562 GROUP 4 **** **** 0
762 MOH 4567 GROUP 4 **** **** 0
763 MOH 4574 GROUP 4 **** **** 0
764 MOH 4580 GROUP 4 **** **** 0
765 MOH 4585 GROUP 4 **** **** 0
766 MOH 4592 GROUP 4 **** **** 0
767 MOH 4597 GROUP 4 **** **** 0

# MOE 2020.09 (io_trps.svl 2020.11)
