@<TRIPOS>MOLECULE
xlinker
58 62 1 0 0 
SMALL
USER_CHARGES


@<TRIPOS>ATOM
  1 C        2.7157     1.8335     0.0699 C.ar  1 <1>   0.0000 
  2 C        3.5130     1.3178    -1.0316 C.2   1 <1>   0.5000 
  3 O1       3.2522     1.6897    -2.1789 O.2   1 <1>  -0.5000 
  4 C        1.3725     2.2296    -0.1491 C.ar  1 <1>  -0.1150 
  5 H        0.9310     2.1246    -1.1310 H     1 <1>   0.1150 
  6 C        0.6000     2.7693     0.9005 C.ar  1 <1>  -0.1150 
  7 H       -0.4237     3.0698     0.7224 H     1 <1>   0.1150 
  8 C        1.1674     2.9256     2.1806 C.ar  1 <1>  -0.1150 
  9 H        0.5708     3.3443     2.9798 H     1 <1>   0.1150 
 10 C        2.5024     2.5373     2.4098 C.ar  1 <1>  -0.1150 
 11 H        2.9488     2.6586     3.3874 H     1 <1>   0.1150 
 12 C        3.2718     1.9952     1.3609 C.ar  1 <1>  -0.1150 
 13 H        4.2992     1.7192     1.5539 H     1 <1>   0.1150 
 14 C        6.4889    -1.7418    -0.7074 C.ar  1 <1>   0.2225 
 15 O        7.5095    -2.6344    -0.5139 O.3   1 <1>  -0.4450 
 16 C        5.3529    -1.7782     0.1266 C.ar  1 <1>  -0.1150 
 17 H        5.2322    -2.5878     0.8310 H     1 <1>   0.1150 
 18 C        4.3847    -0.7566     0.0524 C.ar  1 <1>  -0.1150 
 19 H        3.5181    -0.8000     0.6968 H     1 <1>   0.1150 
 20 C        4.5345     0.3038    -0.8715 C.ar  1 <1>   0.0000 
 21 C        5.6605     0.3155    -1.7246 C.ar  1 <1>  -0.1150 
 22 H        5.7842     1.1146    -2.4424 H     1 <1>   0.1150 
 23 C        6.6267    -0.7030    -1.6489 C.ar  1 <1>  -0.1150 
 24 H        7.4877    -0.6740    -2.2991 H     1 <1>   0.1150 
 25 C       10.2562    -0.6545     1.9212 C.ar  1 <1>   0.2225 
 26 O       11.1890    -0.0334     2.7019 O.3   1 <1>  -0.4450 
 27 C        9.1896    -1.3689     2.5030 C.ar  1 <1>  -0.1150 
 28 H        9.0407    -1.3576     3.5706 H     1 <1>   0.1150 
 29 C        8.2995    -2.0876     1.6874 C.ar  1 <1>  -0.1150 
 30 H        7.4776    -2.6282     2.1309 H     1 <1>   0.1150 
 31 C        8.4617    -2.0749     0.2883 C.ar  1 <1>   0.2225 
 32 C        9.5437    -1.3841    -0.2915 C.ar  1 <1>  -0.1150 
 33 H        9.6737    -1.3919    -1.3637 H     1 <1>   0.1150 
 34 C       10.4335    -0.6646     0.5250 C.ar  1 <1>  -0.1150 
 35 H       11.2523    -0.1191     0.0832 H     1 <1>   0.1150 
 36 C        9.9159     3.4084     4.7724 C.ar  1 <1>   0.0000 
 37 C        9.4121     4.5963     5.4449 C.2   1 <1>   0.5000 
 38 O3       8.5859     5.2608     4.8165 O.2   1 <1>  -0.5000 
 39 C       10.1986     3.4619     3.3862 C.ar  1 <1>  -0.1150 
 40 H       10.0793     4.3912     2.8453 H     1 <1>   0.1150 
 41 C       10.6053     2.3101     2.6834 C.ar  1 <1>  -0.1150 
 42 H       10.8073     2.3684     1.6238 H     1 <1>   0.1150 
 43 C       10.7238     1.0778     3.3530 C.ar  1 <1>   0.2225 
 44 C       10.4265     1.0092     4.7286 C.ar  1 <1>  -0.1150 
 45 H       10.5230     0.0672     5.2492 H     1 <1>   0.1150 
 46 C       10.0195     2.1625     5.4324 C.ar  1 <1>  -0.1150 
 47 H        9.7775     2.0799     6.4815 H     1 <1>   0.1150 
 48 C       10.5207     5.9597     9.3722 C.ar  1 <1>  -0.1150 
 49 H       10.8013     6.3205    10.3524 H     1 <1>   0.1150 
 50 C       11.3452     5.0439     8.6897 C.ar  1 <1>  -0.1150 
 51 H       12.2628     4.7085     9.1526 H     1 <1>   0.1150 
 52 C       10.9843     4.5775     7.4075 C.ar  1 <1>  -0.1150 
 53 H       11.6493     3.8935     6.9003 H     1 <1>   0.1150 
 54 C        9.7874     5.0169     6.7908 C.ar  1 <1>   0.0000 
 55 C        8.9704     5.9399     7.4916 C.ar  1 <1>  -0.1150 
 56 H        8.0547     6.2988     7.0409 H     1 <1>   0.1150 
 57 C        9.3311     6.4099     8.7716 C.ar  1 <1>  -0.1150 
 58 H        8.6999     7.1186     9.2915 H     1 <1>   0.1150 
@<TRIPOS>BOND
  1   1   2  1   
  2   1   4  ar  
  3   1  12  ar  
  4   2   3  2   
  5   2  20  1   
  6   4   5  1   
  7   4   6  ar  
  8   6   7  1   
  9   6   8  ar  
 10   8   9  1   
 11   8  10  ar  
 12  10  11  1   
 13  10  12  ar  
 14  12  13  1   
 15  14  15  1   
 16  14  16  ar  
 17  14  23  ar  
 18  15  31  1   
 19  16  17  1   
 20  16  18  ar  
 21  18  19  1   
 22  18  20  ar  
 23  20  21  ar  
 24  21  22  1   
 25  21  23  ar  
 26  23  24  1   
 27  25  26  1   
 28  25  27  ar  
 29  25  34  ar  
 30  26  43  1   
 31  27  28  1   
 32  27  29  ar  
 33  29  30  1   
 34  29  31  ar  
 35  31  32  ar  
 36  32  33  1   
 37  32  34  ar  
 38  34  35  1   
 39  36  37  1   
 40  36  39  ar  
 41  36  46  ar  
 42  37  38  2   
 43  37  54  1   
 44  39  40  1   
 45  39  41  ar  
 46  41  42  1   
 47  41  43  ar  
 48  43  44  ar  
 49  44  45  1   
 50  44  46  ar  
 51  46  47  1   
 52  48  49  1   
 53  48  50  ar  
 54  48  57  ar  
 55  50  51  1   
 56  50  52  ar  
 57  52  53  1   
 58  52  54  ar  
 59  54  55  ar  
 60  55  56  1   
 61  55  57  ar  
 62  57  58  1   
@<TRIPOS>SUBSTRUCTURE
  1 ****  41 GROUP 4 **** **** 0

# MOE 2020.09 (io_trps.svl 2020.11)
