@<TRIPOS>MOLECULE
parm_system.corrected.pdb
 70 74 0 0 0
SMALL
GASTEIGER

@<TRIPOS>ATOM
      1 ZN          4.0544   -6.0520   -8.4509 Zn      1  UNL1        0.0000
      2 ZN          5.0811   -3.7610   -5.1982 Zn      1  UNL1        0.0000
      3 ZN          7.1104   -6.2348   -6.6479 Zn      1  UNL1        0.0000
      4 ZN          6.9483   -4.6905   -2.8635 Zn      1  UNL1        0.0000
      5 ZN          4.6794   -7.7322   -5.4822 Zn      1  UNL1        0.0000
      6 ZN          4.7516   -5.9105   -2.0537 Zn      1  UNL1        0.0000
      7 ZN          7.7578   -7.2691   -3.8377 Zn      1  UNL1        0.0000
      8 ZN          8.2488   -5.2264   -1.0176 Zn      1  UNL1        0.0000
      9 S           4.9796   -5.7348   -6.4345 S.3     1  UNL1        0.0000
     10 S           4.9500   -3.7734   -2.8714 S.3     1  UNL1        0.0000
     11 S           7.8129   -5.3404   -4.8153 S.3     1  UNL1        0.0000
     12 S           8.2620   -3.2138   -2.0547 S.3     1  UNL1        0.0000
     13 S           5.5475   -7.5015   -3.4323 S.3     1  UNL1        0.0000
     14 S           6.1903   -5.9754   -0.3160 S.3     1  UNL1        0.0000
     15 S           9.2186   -6.9126   -2.1699 S.3     1  UNL1        0.0000
     16 S           9.5104   -4.8634    0.7631 S.3     1  UNL1        0.0000
     17 C           0.5019   -4.7488    3.4789 C.3     1  UNL1        0.0000
     18 C           1.6548   -5.4216    4.2275 C.3     1  UNL1        0.0000
     19 C           3.1032   -4.9624    3.9433 C.3     1  UNL1        0.0000
     20 C           3.5235   -4.6987    2.5068 C.3     1  UNL1        0.0000
     21 C           2.9054   -3.4271    1.8792 C.3     1  UNL1        0.0000
     22 C           3.2953   -2.0462    2.4780 C.3     1  UNL1        0.0000
     23 C           2.7540   -1.3968    3.8027 C.3     1  UNL1        0.0000
     24 C           3.1205   -1.7521    5.2761 C.3     1  UNL1        0.0000
     25 C           4.5229   -1.8725    5.9250 C.2     1  UNL1        0.0000
     26 C           5.7796   -1.5381    5.5853 C.2     1  UNL1        0.0000
     27 C           6.2905   -0.8598    4.3528 C.3     1  UNL1        0.0000
     28 C           5.8051    0.5882    4.1964 C.3     1  UNL1        0.0000
     29 C           6.2390    1.2257    2.8592 C.3     1  UNL1        0.0000
     30 C           5.7665    0.4088    1.6324 C.3     1  UNL1        0.0000
     31 C           6.1005    1.0366    0.2750 C.3     1  UNL1        0.0000
     32 C           5.8284    0.0585   -0.9452 C.3     1  UNL1        0.0000
     33 C           4.3694   -0.4207   -1.1802 C.3     1  UNL1        0.0000
     34 C           4.1741   -1.2309   -2.4998 C.3     1  UNL1        0.0000
     35 O           5.2391   -2.0364   -2.9752 O.3     1  UNL1        0.0000
     36 O           2.8999   -1.7904   -2.6543 O.3     1  UNL1        0.0000
     37 H           0.5283   -5.0358    2.4061 H       1  UNL1        0.0000
     38 H           0.5059   -3.6440    3.5980 H       1  UNL1        0.0000
     39 H          -0.4665   -5.1288    3.8694 H       1  UNL1        0.0000
     40 H           1.5745   -6.5047    4.0014 H       1  UNL1        0.0000
     41 H           1.4832   -5.2816    5.3190 H       1  UNL1        0.0000
     42 H           3.7721   -5.7241    4.3904 H       1  UNL1        0.0000
     43 H           3.3622   -4.0588    4.4598 H       1  UNL1        0.0000
     44 H           4.6262   -4.5529    2.4907 H       1  UNL1        0.0000
     45 H           3.2958   -5.5934    1.8869 H       1  UNL1        0.0000
     46 H           1.8188   -3.4801    1.7373 H       1  UNL1        0.0000
     47 H           3.3090   -3.4194    0.8394 H       1  UNL1        0.0000
     48 H           4.3789   -1.9609    2.4142 H       1  UNL1        0.0000
     49 H           2.8838   -1.3529    1.7091 H       1  UNL1        0.0000
     50 H           1.6424   -1.4454    3.7497 H       1  UNL1        0.0000
     51 H           2.9850   -0.3277    3.7024 H       1  UNL1        0.0000
     52 H           2.5404   -2.6479    5.5974 H       1  UNL1        0.0000
     53 H           2.6100   -0.9995    5.9116 H       1  UNL1        0.0000
     54 H           4.4560   -2.3517    6.9079 H       1  UNL1        0.0000
     55 H           6.5586   -1.7997    6.3020 H       1  UNL1        0.0000
     56 H           6.0279   -1.5129    3.5242 H       1  UNL1        0.0000
     57 H           7.4040   -0.8337    4.3909 H       1  UNL1        0.0000
     58 H           6.2011    1.1964    5.0446 H       1  UNL1        0.0000
     59 H           4.7179    0.6425    4.2663 H       1  UNL1        0.0000
     60 H           7.3563    1.3220    2.8383 H       1  UNL1        0.0000
     61 H           5.8185    2.2593    2.8173 H       1  UNL1        0.0000
     62 H           4.6671    0.2654    1.6992 H       1  UNL1        0.0000
     63 H           6.2870   -0.5676    1.6541 H       1  UNL1        0.0000
     64 H           5.5135    1.9825    0.1391 H       1  UNL1        0.0000
     65 H           7.1732    1.2705    0.2521 H       1  UNL1        0.0000
     66 H           6.4692   -0.8370   -0.8162 H       1  UNL1        0.0000
     67 H           6.1601    0.5953   -1.8630 H       1  UNL1        0.0000
     68 H           3.7054    0.4756   -1.2308 H       1  UNL1        0.0000
     69 H           4.0392   -1.0162   -0.2961 H       1  UNL1        0.0000
     70 H           2.5373   -1.3502   -3.4686 H       1  UNL1        0.0000
@<TRIPOS>BOND
     1     1     9    1
     2     3    11    1
     3     3     9    1
     4     5    13    1
     5     5     9    1
     6     7    15    1
     7     7    13    1
     8     7    11    1
     9    15     8    1
    10    13     6    1
    11    11     4    1
    12     9     2    1
    13     2    10    1
    14     8    12    1
    15     8    14    1
    16     8    16    1
    17     6    10    1
    18     6    14    1
    19     4    10    1
    20     4    12    1
    21    10    35    1
    22    35    34    1
    23    34    36    1
    24    34    33    1
    25    69    33    1
    26    70    36    1
    27    66    32    1
    28    33    32    1
    29    33    68    1
    30    32    67    1
    31    32    31    1
    32    62    30    1
    33    64    31    1
    34    58    28    1
    35    31    30    1
    36    31    65    1
    37    59    28    1
    38    30    63    1
    39    30    29    1
    40    28    29    1
    41    28    27    1
    42    57    27    1
    43    55    26    1
    44    29    60    1
    45    29    61    1
    46    27    26    1
    47    27    56    1
    48    26    25    2
    49    25    54    1
    50    25    24    1
    51    50    23    1
    52    53    24    1
    53    24    23    1
    54    24    52    1
    55    23    51    1
    56    23    22    1
    57    46    21    1
    58    47    21    1
    59    21    22    1
    60    21    20    1
    61    22    49    1
    62    22    48    1
    63    45    20    1
    64    20    44    1
    65    20    19    1
    66    42    19    1
    67    19    43    1
    68    19    18    1
    69    41    18    1
    70    18    17    1
    71    18    40    1
    72    37    17    1
    73    17    39    1
    74    17    38    1
