@<TRIPOS>MOLECULE
RES
4724 5728 1 0 1
SMALL
NO_CHARGES
@<TRIPOS>CRYSIN
   55.6576    55.6576    47.7260    90.0000    90.0000    90.0000  1  1
@<TRIPOS>ATOM
       1 ZN           0.0000     0.0000     0.0000 ZN            1 RES     
       2 ZN           0.0000     0.0000     5.4500 ZN            1 RES     
       3 ZN           0.0000    38.1520     0.0000 ZN            1 RES     
       4 ZN           0.0000    38.1520     5.4500 ZN            1 RES     
       5 ZN          38.1520     0.0000     0.0000 ZN            1 RES     
       6 ZN          38.1520     0.0000     5.4500 ZN            1 RES     
       7 ZN          38.1520    38.1520     0.0000 ZN            1 RES     
       8 ZN          38.1520    38.1520     5.4500 ZN            1 RES     
       9 ZN           0.0000     2.7250     2.7250 ZN            1 RES     
      10 ZN          38.1520     2.7250     2.7250 ZN            1 RES     
      11 ZN           2.7250     0.0000     2.7250 ZN            1 RES     
      12 ZN           2.7250    38.1520     2.7250 ZN            1 RES     
      13 ZN           2.7250     2.7250     0.0000 ZN            1 RES     
      14 ZN           2.7250     2.7250     5.4500 ZN            1 RES     
      15 ZN           0.0000     5.4500     0.0000 ZN            1 RES     
      16 ZN           0.0000     5.4500     5.4500 ZN            1 RES     
      17 ZN          38.1520     5.4500     0.0000 ZN            1 RES     
      18 ZN          38.1520     5.4500     5.4500 ZN            1 RES     
      19 ZN           0.0000    32.7020     0.0000 ZN            1 RES     
      20 ZN           0.0000    32.7020     5.4500 ZN            1 RES     
      21 ZN          38.1520    32.7020     0.0000 ZN            1 RES     
      22 ZN          38.1520    32.7020     5.4500 ZN            1 RES     
      23 ZN           5.4500     0.0000     0.0000 ZN            1 RES     
      24 ZN           5.4500     0.0000     5.4500 ZN            1 RES     
      25 ZN           5.4500    38.1520     0.0000 ZN            1 RES     
      26 ZN           5.4500    38.1520     5.4500 ZN            1 RES     
      27 ZN          32.7020     0.0000     0.0000 ZN            1 RES     
      28 ZN          32.7020     0.0000     5.4500 ZN            1 RES     
      29 ZN          32.7020    38.1520     0.0000 ZN            1 RES     
      30 ZN          32.7020    38.1520     5.4500 ZN            1 RES     
      31 ZN           0.0000     8.1750     2.7250 ZN            1 RES     
      32 ZN          38.1520     8.1750     2.7250 ZN            1 RES     
      33 ZN           0.0000    35.4270     2.7250 ZN            1 RES     
      34 ZN          38.1520    35.4270     2.7250 ZN            1 RES     
      35 ZN           5.4500     2.7250     2.7250 ZN            1 RES     
      36 ZN          32.7020     2.7250     2.7250 ZN            1 RES     
      37 ZN           2.7250     5.4500     2.7250 ZN            1 RES     
      38 ZN           2.7250    32.7020     2.7250 ZN            1 RES     
      39 ZN           8.1750     0.0000     2.7250 ZN            1 RES     
      40 ZN           8.1750    38.1520     2.7250 ZN            1 RES     
      41 ZN          35.4270     0.0000     2.7250 ZN            1 RES     
      42 ZN          35.4270    38.1520     2.7250 ZN            1 RES     
      43 ZN           2.7250     8.1750     0.0000 ZN            1 RES     
      44 ZN           2.7250     8.1750     5.4500 ZN            1 RES     
      45 ZN           2.7250    35.4270     0.0000 ZN            1 RES     
      46 ZN           2.7250    35.4270     5.4500 ZN            1 RES     
      47 ZN           8.1750     2.7250     0.0000 ZN            1 RES     
      48 ZN           8.1750     2.7250     5.4500 ZN            1 RES     
      49 ZN          35.4270     2.7250     0.0000 ZN            1 RES     
      50 ZN          35.4270     2.7250     5.4500 ZN            1 RES     
      51 ZN           0.0000    10.9010     0.0000 ZN            1 RES     
      52 ZN           0.0000    10.9010     5.4500 ZN            1 RES     
      53 ZN          38.1520    10.9010     0.0000 ZN            1 RES     
      54 ZN          38.1520    10.9010     5.4500 ZN            1 RES     
      55 ZN           0.0000    27.2510     0.0000 ZN            1 RES     
      56 ZN           0.0000    27.2510     5.4500 ZN            1 RES     
      57 ZN          38.1520    27.2510     0.0000 ZN            1 RES     
      58 ZN          38.1520    27.2510     5.4500 ZN            1 RES     
      59 ZN          10.9010     0.0000     0.0000 ZN            1 RES     
      60 ZN          10.9010     0.0000     5.4500 ZN            1 RES     
      61 ZN          10.9010    38.1520     0.0000 ZN            1 RES     
      62 ZN          10.9010    38.1520     5.4500 ZN            1 RES     
      63 ZN          27.2510     0.0000     0.0000 ZN            1 RES     
      64 ZN          27.2510     0.0000     5.4500 ZN            1 RES     
      65 ZN          27.2510    38.1520     0.0000 ZN            1 RES     
      66 ZN          27.2510    38.1520     5.4500 ZN            1 RES     
      67 ZN           0.0000    13.6260     2.7250 ZN            1 RES     
      68 ZN          38.1520    13.6260     2.7250 ZN            1 RES     
      69 ZN           0.0000    29.9760     2.7250 ZN            1 RES     
      70 ZN          38.1520    29.9760     2.7250 ZN            1 RES     
      71 ZN          10.9010     2.7250     2.7250 ZN            1 RES     
      72 ZN          27.2510     2.7250     2.7250 ZN            1 RES     
      73 ZN           2.7250    10.9010     2.7250 ZN            1 RES     
      74 ZN           2.7250    27.2510     2.7250 ZN            1 RES     
      75 ZN          13.6260     0.0000     2.7250 ZN            1 RES     
      76 ZN          13.6260    38.1520     2.7250 ZN            1 RES     
      77 ZN          29.9760     0.0000     2.7250 ZN            1 RES     
      78 ZN          29.9760    38.1520     2.7250 ZN            1 RES     
      79 ZN           2.7250    13.6260     0.0000 ZN            1 RES     
      80 ZN           2.7250    13.6260     5.4500 ZN            1 RES     
      81 ZN           2.7250    29.9760     0.0000 ZN            1 RES     
      82 ZN           2.7250    29.9760     5.4500 ZN            1 RES     
      83 ZN          13.6260     2.7250     0.0000 ZN            1 RES     
      84 ZN          13.6260     2.7250     5.4500 ZN            1 RES     
      85 ZN          29.9760     2.7250     0.0000 ZN            1 RES     
      86 ZN          29.9760     2.7250     5.4500 ZN            1 RES     
      87 ZN           0.0000    16.3510     0.0000 ZN            1 RES     
      88 ZN           0.0000    16.3510     5.4500 ZN            1 RES     
      89 ZN          38.1520    16.3510     0.0000 ZN            1 RES     
      90 ZN          38.1520    16.3510     5.4500 ZN            1 RES     
      91 ZN           0.0000    21.8010     0.0000 ZN            1 RES     
      92 ZN           0.0000    21.8010     5.4500 ZN            1 RES     
      93 ZN          38.1520    21.8010     0.0000 ZN            1 RES     
      94 ZN          38.1520    21.8010     5.4500 ZN            1 RES     
      95 ZN          16.3510     0.0000     0.0000 ZN            1 RES     
      96 ZN          16.3510     0.0000     5.4500 ZN            1 RES     
      97 ZN          16.3510    38.1520     0.0000 ZN            1 RES     
      98 ZN          16.3510    38.1520     5.4500 ZN            1 RES     
      99 ZN          21.8010     0.0000     0.0000 ZN            1 RES     
     100 ZN          21.8010     0.0000     5.4500 ZN            1 RES     
     101 ZN          21.8010    38.1520     0.0000 ZN            1 RES     
     102 ZN          21.8010    38.1520     5.4500 ZN            1 RES     
     103 ZN           0.0000    19.0760     2.7250 ZN            1 RES     
     104 ZN          38.1520    19.0760     2.7250 ZN            1 RES     
     105 ZN           0.0000    24.5260     2.7250 ZN            1 RES     
     106 ZN          38.1520    24.5260     2.7250 ZN            1 RES     
     107 ZN          16.3510     2.7250     2.7250 ZN            1 RES     
     108 ZN          21.8010     2.7250     2.7250 ZN            1 RES     
     109 ZN           2.7250    16.3510     2.7250 ZN            1 RES     
     110 ZN           2.7250    21.8010     2.7250 ZN            1 RES     
     111 ZN          19.0760     0.0000     2.7250 ZN            1 RES     
     112 ZN          19.0760    38.1520     2.7250 ZN            1 RES     
     113 ZN          24.5260     0.0000     2.7250 ZN            1 RES     
     114 ZN          24.5260    38.1520     2.7250 ZN            1 RES     
     115 ZN           2.7250    19.0760     0.0000 ZN            1 RES     
     116 ZN           2.7250    19.0760     5.4500 ZN            1 RES     
     117 ZN           2.7250    24.5260     0.0000 ZN            1 RES     
     118 ZN           2.7250    24.5260     5.4500 ZN            1 RES     
     119 ZN          19.0760     2.7250     0.0000 ZN            1 RES     
     120 ZN          19.0760     2.7250     5.4500 ZN            1 RES     
     121 ZN          24.5260     2.7250     0.0000 ZN            1 RES     
     122 ZN          24.5260     2.7250     5.4500 ZN            1 RES     
     123 ZN           5.4500     5.4500     0.0000 ZN            1 RES     
     124 ZN           5.4500     5.4500     5.4500 ZN            1 RES     
     125 ZN          32.7020    32.7020     0.0000 ZN            1 RES     
     126 ZN          32.7020    32.7020     5.4500 ZN            1 RES     
     127 ZN          32.7020     5.4500     0.0000 ZN            1 RES     
     128 ZN          32.7020     5.4500     5.4500 ZN            1 RES     
     129 ZN           5.4500    32.7020     0.0000 ZN            1 RES     
     130 ZN           5.4500    32.7020     5.4500 ZN            1 RES     
     131 ZN           5.4500     8.1750     2.7250 ZN            1 RES     
     132 ZN          32.7020    35.4270     2.7250 ZN            1 RES     
     133 ZN          32.7020     8.1750     2.7250 ZN            1 RES     
     134 ZN           5.4500    35.4270     2.7250 ZN            1 RES     
     135 ZN           8.1750     5.4500     2.7250 ZN            1 RES     
     136 ZN          35.4270    32.7020     2.7250 ZN            1 RES     
     137 ZN          35.4270     5.4500     2.7250 ZN            1 RES     
     138 ZN           8.1750    32.7020     2.7250 ZN            1 RES     
     139 ZN           8.1750     8.1750     0.0000 ZN            1 RES     
     140 ZN           8.1750     8.1750     5.4500 ZN            1 RES     
     141 ZN          35.4270    35.4270     0.0000 ZN            1 RES     
     142 ZN          35.4270    35.4270     5.4500 ZN            1 RES     
     143 ZN          35.4270     8.1750     0.0000 ZN            1 RES     
     144 ZN          35.4270     8.1750     5.4500 ZN            1 RES     
     145 ZN           8.1750    35.4270     0.0000 ZN            1 RES     
     146 ZN           8.1750    35.4270     5.4500 ZN            1 RES     
     147 ZN           5.4500    10.9010     0.0000 ZN            1 RES     
     148 ZN           5.4500    10.9010     5.4500 ZN            1 RES     
     149 ZN          32.7020    27.2510     0.0000 ZN            1 RES     
     150 ZN          32.7020    27.2510     5.4500 ZN            1 RES     
     151 ZN          32.7020    10.9010     0.0000 ZN            1 RES     
     152 ZN          32.7020    10.9010     5.4500 ZN            1 RES     
     153 ZN           5.4500    27.2510     0.0000 ZN            1 RES     
     154 ZN           5.4500    27.2510     5.4500 ZN            1 RES     
     155 ZN          10.9010     5.4500     0.0000 ZN            1 RES     
     156 ZN          10.9010     5.4500     5.4500 ZN            1 RES     
     157 ZN          27.2510    32.7020     0.0000 ZN            1 RES     
     158 ZN          27.2510    32.7020     5.4500 ZN            1 RES     
     159 ZN          10.9010    32.7020     0.0000 ZN            1 RES     
     160 ZN          10.9010    32.7020     5.4500 ZN            1 RES     
     161 ZN          27.2510     5.4500     0.0000 ZN            1 RES     
     162 ZN          27.2510     5.4500     5.4500 ZN            1 RES     
     163 ZN           5.4500    13.6260     2.7250 ZN            1 RES     
     164 ZN          32.7020    29.9760     2.7250 ZN            1 RES     
     165 ZN          32.7020    13.6260     2.7250 ZN            1 RES     
     166 ZN           5.4500    29.9760     2.7250 ZN            1 RES     
     167 ZN          10.9010     8.1750     2.7250 ZN            1 RES     
     168 ZN          27.2510    35.4270     2.7250 ZN            1 RES     
     169 ZN          10.9010    35.4270     2.7250 ZN            1 RES     
     170 ZN          27.2510     8.1750     2.7250 ZN            1 RES     
     171 ZN           8.1750    10.9010     2.7250 ZN            1 RES     
     172 ZN          35.4270    27.2510     2.7250 ZN            1 RES     
     173 ZN          35.4270    10.9010     2.7250 ZN            1 RES     
     174 ZN           8.1750    27.2510     2.7250 ZN            1 RES     
     175 ZN          13.6260     5.4500     2.7250 ZN            1 RES     
     176 ZN          29.9760    32.7020     2.7250 ZN            1 RES     
     177 ZN          13.6260    32.7020     2.7250 ZN            1 RES     
     178 ZN          29.9760     5.4500     2.7250 ZN            1 RES     
     179 ZN           8.1750    13.6260     0.0000 ZN            1 RES     
     180 ZN           8.1750    13.6260     5.4500 ZN            1 RES     
     181 ZN          35.4270    29.9760     0.0000 ZN            1 RES     
     182 ZN          35.4270    29.9760     5.4500 ZN            1 RES     
     183 ZN          35.4270    13.6260     0.0000 ZN            1 RES     
     184 ZN          35.4270    13.6260     5.4500 ZN            1 RES     
     185 ZN           8.1750    29.9760     0.0000 ZN            1 RES     
     186 ZN           8.1750    29.9760     5.4500 ZN            1 RES     
     187 ZN          13.6260     8.1750     0.0000 ZN            1 RES     
     188 ZN          13.6260     8.1750     5.4500 ZN            1 RES     
     189 ZN          29.9760    35.4270     0.0000 ZN            1 RES     
     190 ZN          29.9760    35.4270     5.4500 ZN            1 RES     
     191 ZN          13.6260    35.4270     0.0000 ZN            1 RES     
     192 ZN          13.6260    35.4270     5.4500 ZN            1 RES     
     193 ZN          29.9760     8.1750     0.0000 ZN            1 RES     
     194 ZN          29.9760     8.1750     5.4500 ZN            1 RES     
     195 ZN           5.4500    16.3510     0.0000 ZN            1 RES     
     196 ZN           5.4500    16.3510     5.4500 ZN            1 RES     
     197 ZN          32.7020    21.8010     0.0000 ZN            1 RES     
     198 ZN          32.7020    21.8010     5.4500 ZN            1 RES     
     199 ZN          32.7020    16.3510     0.0000 ZN            1 RES     
     200 ZN          32.7020    16.3510     5.4500 ZN            1 RES     
     201 ZN           5.4500    21.8010     0.0000 ZN            1 RES     
     202 ZN           5.4500    21.8010     5.4500 ZN            1 RES     
     203 ZN          16.3510     5.4500     0.0000 ZN            1 RES     
     204 ZN          16.3510     5.4500     5.4500 ZN            1 RES     
     205 ZN          21.8010    32.7020     0.0000 ZN            1 RES     
     206 ZN          21.8010    32.7020     5.4500 ZN            1 RES     
     207 ZN          16.3510    32.7020     0.0000 ZN            1 RES     
     208 ZN          16.3510    32.7020     5.4500 ZN            1 RES     
     209 ZN          21.8010     5.4500     0.0000 ZN            1 RES     
     210 ZN          21.8010     5.4500     5.4500 ZN            1 RES     
     211 ZN           5.4500    19.0760     2.7250 ZN            1 RES     
     212 ZN          32.7020    24.5260     2.7250 ZN            1 RES     
     213 ZN          32.7020    19.0760     2.7250 ZN            1 RES     
     214 ZN           5.4500    24.5260     2.7250 ZN            1 RES     
     215 ZN          16.3510     8.1750     2.7250 ZN            1 RES     
     216 ZN          21.8010    35.4270     2.7250 ZN            1 RES     
     217 ZN          16.3510    35.4270     2.7250 ZN            1 RES     
     218 ZN          21.8010     8.1750     2.7250 ZN            1 RES     
     219 ZN           8.1750    16.3510     2.7250 ZN            1 RES     
     220 ZN          35.4270    21.8010     2.7250 ZN            1 RES     
     221 ZN          35.4270    16.3510     2.7250 ZN            1 RES     
     222 ZN           8.1750    21.8010     2.7250 ZN            1 RES     
     223 ZN          19.0760     5.4500     2.7250 ZN            1 RES     
     224 ZN          24.5260    32.7020     2.7250 ZN            1 RES     
     225 ZN          19.0760    32.7020     2.7250 ZN            1 RES     
     226 ZN          24.5260     5.4500     2.7250 ZN            1 RES     
     227 ZN           8.1750    19.0760     0.0000 ZN            1 RES     
     228 ZN           8.1750    19.0760     5.4500 ZN            1 RES     
     229 ZN          35.4270    24.5260     0.0000 ZN            1 RES     
     230 ZN          35.4270    24.5260     5.4500 ZN            1 RES     
     231 ZN          35.4270    19.0760     0.0000 ZN            1 RES     
     232 ZN          35.4270    19.0760     5.4500 ZN            1 RES     
     233 ZN           8.1750    24.5260     0.0000 ZN            1 RES     
     234 ZN           8.1750    24.5260     5.4500 ZN            1 RES     
     235 ZN          19.0760     8.1750     0.0000 ZN            1 RES     
     236 ZN          19.0760     8.1750     5.4500 ZN            1 RES     
     237 ZN          24.5260    35.4270     0.0000 ZN            1 RES     
     238 ZN          24.5260    35.4270     5.4500 ZN            1 RES     
     239 ZN          19.0760    35.4270     0.0000 ZN            1 RES     
     240 ZN          19.0760    35.4270     5.4500 ZN            1 RES     
     241 ZN          24.5260     8.1750     0.0000 ZN            1 RES     
     242 ZN          24.5260     8.1750     5.4500 ZN            1 RES     
     243 ZN          10.9010    10.9010     0.0000 ZN            1 RES     
     244 ZN          10.9010    10.9010     5.4500 ZN            1 RES     
     245 ZN          27.2510    27.2510     0.0000 ZN            1 RES     
     246 ZN          27.2510    27.2510     5.4500 ZN            1 RES     
     247 ZN          27.2510    10.9010     0.0000 ZN            1 RES     
     248 ZN          27.2510    10.9010     5.4500 ZN            1 RES     
     249 ZN          10.9010    27.2510     0.0000 ZN            1 RES     
     250 ZN          10.9010    27.2510     5.4500 ZN            1 RES     
     251 ZN          10.9010    13.6260     2.7250 ZN            1 RES     
     252 ZN          27.2510    29.9760     2.7250 ZN            1 RES     
     253 ZN          27.2510    13.6260     2.7250 ZN            1 RES     
     254 ZN          10.9010    29.9760     2.7250 ZN            1 RES     
     255 ZN          13.6260    10.9010     2.7250 ZN            1 RES     
     256 ZN          29.9760    27.2510     2.7250 ZN            1 RES     
     257 ZN          29.9760    10.9010     2.7250 ZN            1 RES     
     258 ZN          13.6260    27.2510     2.7250 ZN            1 RES     
     259 ZN          13.6260    13.6260     0.0000 ZN            1 RES     
     260 ZN          13.6260    13.6260     5.4500 ZN            1 RES     
     261 ZN          29.9760    29.9760     0.0000 ZN            1 RES     
     262 ZN          29.9760    29.9760     5.4500 ZN            1 RES     
     263 ZN          29.9760    13.6260     0.0000 ZN            1 RES     
     264 ZN          29.9760    13.6260     5.4500 ZN            1 RES     
     265 ZN          13.6260    29.9760     0.0000 ZN            1 RES     
     266 ZN          13.6260    29.9760     5.4500 ZN            1 RES     
     267 ZN          10.9010    16.3510     0.0000 ZN            1 RES     
     268 ZN          10.9010    16.3510     5.4500 ZN            1 RES     
     269 ZN          27.2510    21.8010     0.0000 ZN            1 RES     
     270 ZN          27.2510    21.8010     5.4500 ZN            1 RES     
     271 ZN          27.2510    16.3510     0.0000 ZN            1 RES     
     272 ZN          27.2510    16.3510     5.4500 ZN            1 RES     
     273 ZN          10.9010    21.8010     0.0000 ZN            1 RES     
     274 ZN          10.9010    21.8010     5.4500 ZN            1 RES     
     275 ZN          16.3510    10.9010     0.0000 ZN            1 RES     
     276 ZN          16.3510    10.9010     5.4500 ZN            1 RES     
     277 ZN          21.8010    27.2510     0.0000 ZN            1 RES     
     278 ZN          21.8010    27.2510     5.4500 ZN            1 RES     
     279 ZN          16.3510    27.2510     0.0000 ZN            1 RES     
     280 ZN          16.3510    27.2510     5.4500 ZN            1 RES     
     281 ZN          21.8010    10.9010     0.0000 ZN            1 RES     
     282 ZN          21.8010    10.9010     5.4500 ZN            1 RES     
     283 ZN          10.9010    19.0760     2.7250 ZN            1 RES     
     284 ZN          27.2510    24.5260     2.7250 ZN            1 RES     
     285 ZN          27.2510    19.0760     2.7250 ZN            1 RES     
     286 ZN          10.9010    24.5260     2.7250 ZN            1 RES     
     287 ZN          16.3510    13.6260     2.7250 ZN            1 RES     
     288 ZN          21.8010    29.9760     2.7250 ZN            1 RES     
     289 ZN          16.3510    29.9760     2.7250 ZN            1 RES     
     290 ZN          21.8010    13.6260     2.7250 ZN            1 RES     
     291 ZN          13.6260    16.3510     2.7250 ZN            1 RES     
     292 ZN          29.9760    21.8010     2.7250 ZN            1 RES     
     293 ZN          29.9760    16.3510     2.7250 ZN            1 RES     
     294 ZN          13.6260    21.8010     2.7250 ZN            1 RES     
     295 ZN          19.0760    10.9010     2.7250 ZN            1 RES     
     296 ZN          24.5260    27.2510     2.7250 ZN            1 RES     
     297 ZN          19.0760    27.2510     2.7250 ZN            1 RES     
     298 ZN          24.5260    10.9010     2.7250 ZN            1 RES     
     299 ZN          13.6260    19.0760     0.0000 ZN            1 RES     
     300 ZN          13.6260    19.0760     5.4500 ZN            1 RES     
     301 ZN          29.9760    24.5260     0.0000 ZN            1 RES     
     302 ZN          29.9760    24.5260     5.4500 ZN            1 RES     
     303 ZN          29.9760    19.0760     0.0000 ZN            1 RES     
     304 ZN          29.9760    19.0760     5.4500 ZN            1 RES     
     305 ZN          13.6260    24.5260     0.0000 ZN            1 RES     
     306 ZN          13.6260    24.5260     5.4500 ZN            1 RES     
     307 ZN          19.0760    13.6260     0.0000 ZN            1 RES     
     308 ZN          19.0760    13.6260     5.4500 ZN            1 RES     
     309 ZN          24.5260    29.9760     0.0000 ZN            1 RES     
     310 ZN          24.5260    29.9760     5.4500 ZN            1 RES     
     311 ZN          19.0760    29.9760     0.0000 ZN            1 RES     
     312 ZN          19.0760    29.9760     5.4500 ZN            1 RES     
     313 ZN          24.5260    13.6260     0.0000 ZN            1 RES     
     314 ZN          24.5260    13.6260     5.4500 ZN            1 RES     
     315 ZN          16.3510    16.3510     0.0000 ZN            1 RES     
     316 ZN          16.3510    16.3510     5.4500 ZN            1 RES     
     317 ZN          21.8010    21.8010     0.0000 ZN            1 RES     
     318 ZN          21.8010    21.8010     5.4500 ZN            1 RES     
     319 ZN          21.8010    16.3510     0.0000 ZN            1 RES     
     320 ZN          21.8010    16.3510     5.4500 ZN            1 RES     
     321 ZN          16.3510    21.8010     0.0000 ZN            1 RES     
     322 ZN          16.3510    21.8010     5.4500 ZN            1 RES     
     323 ZN          16.3510    19.0760     2.7250 ZN            1 RES     
     324 ZN          21.8010    24.5260     2.7250 ZN            1 RES     
     325 ZN          21.8010    19.0760     2.7250 ZN            1 RES     
     326 ZN          16.3510    24.5260     2.7250 ZN            1 RES     
     327 ZN          19.0760    16.3510     2.7250 ZN            1 RES     
     328 ZN          24.5260    21.8010     2.7250 ZN            1 RES     
     329 ZN          24.5260    16.3510     2.7250 ZN            1 RES     
     330 ZN          19.0760    21.8010     2.7250 ZN            1 RES     
     331 ZN          19.0760    19.0760     0.0000 ZN            1 RES     
     332 ZN          19.0760    19.0760     5.4500 ZN            1 RES     
     333 ZN          24.5260    24.5260     0.0000 ZN            1 RES     
     334 ZN          24.5260    24.5260     5.4500 ZN            1 RES     
     335 ZN          24.5260    19.0760     0.0000 ZN            1 RES     
     336 ZN          24.5260    19.0760     5.4500 ZN            1 RES     
     337 ZN          19.0760    24.5260     0.0000 ZN            1 RES     
     338 ZN          19.0760    24.5260     5.4500 ZN            1 RES     
     339 S            1.3630     1.3630     4.0880 S             1 RES     
     340 S           36.7890    36.7890     4.0880 S             1 RES     
     341 S           36.7890     1.3630     1.3630 S             1 RES     
     342 S            1.3630    36.7890     1.3630 S             1 RES     
     343 S            4.0880     1.3630     1.3630 S             1 RES     
     344 S            4.0880    36.7890     4.0880 S             1 RES     
     345 S           34.0640    36.7890     1.3630 S             1 RES     
     346 S           34.0640     1.3630     4.0880 S             1 RES     
     347 S            1.3630     4.0880     1.3630 S             1 RES     
     348 S           36.7890     4.0880     4.0880 S             1 RES     
     349 S            1.3630    34.0640     4.0880 S             1 RES     
     350 S           36.7890    34.0640     1.3630 S             1 RES     
     351 S            4.0880     4.0880     4.0880 S             1 RES     
     352 S           34.0640     4.0880     1.3630 S             1 RES     
     353 S            1.3630     6.8130     4.0880 S             1 RES     
     354 S           36.7890     6.8130     1.3630 S             1 RES     
     355 S            6.8130     1.3630     4.0880 S             1 RES     
     356 S            6.8130    36.7890     1.3630 S             1 RES     
     357 S            4.0880    34.0640     1.3630 S             1 RES     
     358 S            6.8130     4.0880     1.3630 S             1 RES     
     359 S            4.0880     6.8130     1.3630 S             1 RES     
     360 S           36.7890    31.3390     4.0880 S             1 RES     
     361 S            1.3630    31.3390     1.3630 S             1 RES     
     362 S           31.3390     4.0880     4.0880 S             1 RES     
     363 S            6.8130    34.0640     4.0880 S             1 RES     
     364 S           31.3390    34.0640     1.3630 S             1 RES     
     365 S           31.3390    36.7890     4.0880 S             1 RES     
     366 S           31.3390     1.3630     1.3630 S             1 RES     
     367 S            4.0880    31.3390     4.0880 S             1 RES     
     368 S           34.0640     6.8130     4.0880 S             1 RES     
     369 S           34.0640    31.3390     1.3630 S             1 RES     
     370 S            1.3630     9.5380     1.3630 S             1 RES     
     371 S           36.7890     9.5380     4.0880 S             1 RES     
     372 S            6.8130     6.8130     4.0880 S             1 RES     
     373 S           31.3390     6.8130     1.3630 S             1 RES     
     374 S            4.0880     9.5380     4.0880 S             1 RES     
     375 S           34.0640     9.5380     1.3630 S             1 RES     
     376 S           34.0640    34.0640     4.0880 S             1 RES     
     377 S            9.5380     4.0880     4.0880 S             1 RES     
     378 S            9.5380    34.0640     1.3630 S             1 RES     
     379 S            9.5380     1.3630     1.3630 S             1 RES     
     380 S            9.5380    36.7890     4.0880 S             1 RES     
     381 S            6.8130    31.3390     1.3630 S             1 RES     
     382 S            9.5380     6.8130     1.3630 S             1 RES     
     383 S            6.8130     9.5380     1.3630 S             1 RES     
     384 S            1.3630    12.2630     4.0880 S             1 RES     
     385 S           36.7890    25.8890     4.0880 S             1 RES     
     386 S           36.7890    12.2630     1.3630 S             1 RES     
     387 S            1.3630    25.8890     1.3630 S             1 RES     
     388 S           12.2630     4.0880     1.3630 S             1 RES     
     389 S           25.8890     4.0880     4.0880 S             1 RES     
     390 S           12.2630    34.0640     4.0880 S             1 RES     
     391 S           25.8890    34.0640     1.3630 S             1 RES     
     392 S           12.2630     1.3630     4.0880 S             1 RES     
     393 S           25.8890    36.7890     4.0880 S             1 RES     
     394 S           12.2630    36.7890     1.3630 S             1 RES     
     395 S           25.8890     1.3630     1.3630 S             1 RES     
     396 S            4.0880    12.2630     1.3630 S             1 RES     
     397 S            4.0880    25.8890     4.0880 S             1 RES     
     398 S           34.0640    12.2630     4.0880 S             1 RES     
     399 S           34.0640    25.8890     1.3630 S             1 RES     
     400 S            1.3630    14.9880     1.3630 S             1 RES     
     401 S           36.7890    28.6140     1.3630 S             1 RES     
     402 S           36.7890    14.9880     4.0880 S             1 RES     
     403 S            1.3630    28.6140     4.0880 S             1 RES     
     404 S           12.2630     6.8130     4.0880 S             1 RES     
     405 S           25.8890     6.8130     1.3630 S             1 RES     
     406 S            4.0880    14.9880     4.0880 S             1 RES     
     407 S            4.0880    28.6140     1.3630 S             1 RES     
     408 S           34.0640    14.9880     1.3630 S             1 RES     
     409 S           34.0640    28.6140     4.0880 S             1 RES     
     410 S           14.9880     4.0880     4.0880 S             1 RES     
     411 S           28.6140     4.0880     1.3630 S             1 RES     
     412 S           14.9880    34.0640     1.3630 S             1 RES     
     413 S           28.6140    34.0640     4.0880 S             1 RES     
     414 S           14.9880     1.3630     1.3630 S             1 RES     
     415 S           28.6140    36.7890     1.3630 S             1 RES     
     416 S           14.9880    36.7890     4.0880 S             1 RES     
     417 S           28.6140     1.3630     4.0880 S             1 RES     
     418 S            6.8130    12.2630     4.0880 S             1 RES     
     419 S            6.8130    25.8890     1.3630 S             1 RES     
     420 S           14.9880     6.8130     1.3630 S             1 RES     
     421 S           28.6140     6.8130     4.0880 S             1 RES     
     422 S            6.8130    14.9880     1.3630 S             1 RES     
     423 S            6.8130    28.6140     4.0880 S             1 RES     
     424 S            1.3630    17.7130     4.0880 S             1 RES     
     425 S           36.7890    20.4390     4.0880 S             1 RES     
     426 S           36.7890    17.7130     1.3630 S             1 RES     
     427 S            1.3630    20.4390     1.3630 S             1 RES     
     428 S           17.7130     4.0880     1.3630 S             1 RES     
     429 S           20.4390     4.0880     4.0880 S             1 RES     
     430 S           17.7130    34.0640     4.0880 S             1 RES     
     431 S           20.4390    34.0640     1.3630 S             1 RES     
     432 S           17.7130     1.3630     4.0880 S             1 RES     
     433 S           20.4390    36.7890     4.0880 S             1 RES     
     434 S           17.7130    36.7890     1.3630 S             1 RES     
     435 S           20.4390     1.3630     1.3630 S             1 RES     
     436 S            4.0880    17.7130     1.3630 S             1 RES     
     437 S            4.0880    20.4390     4.0880 S             1 RES     
     438 S           34.0640    17.7130     4.0880 S             1 RES     
     439 S           34.0640    20.4390     1.3630 S             1 RES     
     440 S           36.7890    23.1640     1.3630 S             1 RES     
     441 S            1.3630    23.1640     4.0880 S             1 RES     
     442 S           17.7130     6.8130     4.0880 S             1 RES     
     443 S           20.4390     6.8130     1.3630 S             1 RES     
     444 S            4.0880    23.1640     1.3630 S             1 RES     
     445 S           34.0640    23.1640     4.0880 S             1 RES     
     446 S           23.1640     4.0880     1.3630 S             1 RES     
     447 S           23.1640    34.0640     4.0880 S             1 RES     
     448 S           23.1640    36.7890     1.3630 S             1 RES     
     449 S           23.1640     1.3630     4.0880 S             1 RES     
     450 S            6.8130    17.7130     4.0880 S             1 RES     
     451 S            6.8130    20.4390     1.3630 S             1 RES     
     452 S           23.1640     6.8130     4.0880 S             1 RES     
     453 S            6.8130    23.1640     4.0880 S             1 RES     
     454 S           31.3390    31.3390     4.0880 S             1 RES     
     455 S           31.3390     9.5380     4.0880 S             1 RES     
     456 S            9.5380    31.3390     4.0880 S             1 RES     
     457 S            9.5380     9.5380     4.0880 S             1 RES     
     458 S           31.3390    25.8890     4.0880 S             1 RES     
     459 S           31.3390    12.2630     1.3630 S             1 RES     
     460 S           25.8890    31.3390     4.0880 S             1 RES     
     461 S           12.2630    31.3390     1.3630 S             1 RES     
     462 S           31.3390    28.6140     1.3630 S             1 RES     
     463 S           31.3390    14.9880     4.0880 S             1 RES     
     464 S           12.2630     9.5380     1.3630 S             1 RES     
     465 S           25.8890     9.5380     4.0880 S             1 RES     
     466 S            9.5380    12.2630     1.3630 S             1 RES     
     467 S            9.5380    25.8890     4.0880 S             1 RES     
     468 S           28.6140    31.3390     1.3630 S             1 RES     
     469 S           14.9880    31.3390     4.0880 S             1 RES     
     470 S            9.5380    14.9880     4.0880 S             1 RES     
     471 S            9.5380    28.6140     1.3630 S             1 RES     
     472 S           14.9880     9.5380     4.0880 S             1 RES     
     473 S           28.6140     9.5380     1.3630 S             1 RES     
     474 S           31.3390    20.4390     4.0880 S             1 RES     
     475 S           31.3390    17.7130     1.3630 S             1 RES     
     476 S           20.4390    31.3390     4.0880 S             1 RES     
     477 S           17.7130    31.3390     1.3630 S             1 RES     
     478 S           31.3390    23.1640     1.3630 S             1 RES     
     479 S           17.7130     9.5380     1.3630 S             1 RES     
     480 S           20.4390     9.5380     4.0880 S             1 RES     
     481 S            9.5380    17.7130     1.3630 S             1 RES     
     482 S            9.5380    20.4390     4.0880 S             1 RES     
     483 S           23.1640    31.3390     1.3630 S             1 RES     
     484 S            9.5380    23.1640     1.3630 S             1 RES     
     485 S           23.1640     9.5380     1.3630 S             1 RES     
     486 S           12.2630    12.2630     4.0880 S             1 RES     
     487 S           25.8890    25.8890     4.0880 S             1 RES     
     488 S           25.8890    12.2630     1.3630 S             1 RES     
     489 S           12.2630    25.8890     1.3630 S             1 RES     
     490 S           12.2630    14.9880     1.3630 S             1 RES     
     491 S           25.8890    28.6140     1.3630 S             1 RES     
     492 S           25.8890    14.9880     4.0880 S             1 RES     
     493 S           12.2630    28.6140     4.0880 S             1 RES     
     494 S           14.9880    12.2630     1.3630 S             1 RES     
     495 S           28.6140    25.8890     1.3630 S             1 RES     
     496 S           28.6140    12.2630     4.0880 S             1 RES     
     497 S           14.9880    25.8890     4.0880 S             1 RES     
     498 S           14.9880    14.9880     4.0880 S             1 RES     
     499 S           28.6140    28.6140     4.0880 S             1 RES     
     500 S           28.6140    14.9880     1.3630 S             1 RES     
     501 S           14.9880    28.6140     1.3630 S             1 RES     
     502 S           12.2630    17.7130     4.0880 S             1 RES     
     503 S           25.8890    20.4390     4.0880 S             1 RES     
     504 S           25.8890    17.7130     1.3630 S             1 RES     
     505 S           12.2630    20.4390     1.3630 S             1 RES     
     506 S           17.7130    12.2630     4.0880 S             1 RES     
     507 S           20.4390    25.8890     4.0880 S             1 RES     
     508 S           17.7130    25.8890     1.3630 S             1 RES     
     509 S           20.4390    12.2630     1.3630 S             1 RES     
     510 S           25.8890    23.1640     1.3630 S             1 RES     
     511 S           12.2630    23.1640     4.0880 S             1 RES     
     512 S           17.7130    14.9880     1.3630 S             1 RES     
     513 S           20.4390    28.6140     1.3630 S             1 RES     
     514 S           17.7130    28.6140     4.0880 S             1 RES     
     515 S           20.4390    14.9880     4.0880 S             1 RES     
     516 S           14.9880    17.7130     1.3630 S             1 RES     
     517 S           28.6140    20.4390     1.3630 S             1 RES     
     518 S           28.6140    17.7130     4.0880 S             1 RES     
     519 S           14.9880    20.4390     4.0880 S             1 RES     
     520 S           23.1640    25.8890     1.3630 S             1 RES     
     521 S           23.1640    12.2630     4.0880 S             1 RES     
     522 S           28.6140    23.1640     4.0880 S             1 RES     
     523 S           14.9880    23.1640     1.3630 S             1 RES     
     524 S           23.1640    28.6140     4.0880 S             1 RES     
     525 S           23.1640    14.9880     1.3630 S             1 RES     
     526 S           17.7130    17.7130     4.0880 S             1 RES     
     527 S           20.4390    20.4390     4.0880 S             1 RES     
     528 S           20.4390    17.7130     1.3630 S             1 RES     
     529 S           17.7130    20.4390     1.3630 S             1 RES     
     530 S           20.4390    23.1640     1.3630 S             1 RES     
     531 S           17.7130    23.1640     4.0880 S             1 RES     
     532 S           23.1640    20.4390     1.3630 S             1 RES     
     533 S           23.1640    17.7130     4.0880 S             1 RES     
     534 S           23.1640    23.1640     4.0880 S             1 RES     
     535 S           -1.3630    -1.3630    -1.3630 S             1 RES     
     536 S           -1.3630     1.3630     1.3630 S             1 RES     
     537 S            1.3630    -1.3630     1.3630 S             1 RES     
     538 S            1.3630     1.3630    -1.3630 S             1 RES     
     539 S           -1.3630    -1.3630     4.0880 S             1 RES     
     540 S           -1.3630     1.3630     6.8130 S             1 RES     
     541 S            1.3630    -1.3630     6.8130 S             1 RES     
     542 S           -1.3630    36.7890    -1.3630 S             1 RES     
     543 S           -1.3630    39.5140     1.3630 S             1 RES     
     544 S            1.3630    39.5140    -1.3630 S             1 RES     
     545 S           -1.3630    36.7890     4.0880 S             1 RES     
     546 S           -1.3630    39.5140     6.8130 S             1 RES     
     547 S            1.3630    36.7890     6.8130 S             1 RES     
     548 S            1.3630    39.5140     4.0880 S             1 RES     
     549 S           36.7890    -1.3630    -1.3630 S             1 RES     
     550 S           39.5140    -1.3630     1.3630 S             1 RES     
     551 S           39.5140     1.3630    -1.3630 S             1 RES     
     552 S           36.7890    -1.3630     4.0880 S             1 RES     
     553 S           36.7890     1.3630     6.8130 S             1 RES     
     554 S           39.5140    -1.3630     6.8130 S             1 RES     
     555 S           39.5140     1.3630     4.0880 S             1 RES     
     556 S           36.7890    36.7890    -1.3630 S             1 RES     
     557 S           36.7890    39.5140     1.3630 S             1 RES     
     558 S           39.5140    36.7890     1.3630 S             1 RES     
     559 S           39.5140    39.5140    -1.3630 S             1 RES     
     560 S           36.7890    39.5140     6.8130 S             1 RES     
     561 S           39.5140    36.7890     6.8130 S             1 RES     
     562 S           39.5140    39.5140     4.0880 S             1 RES     
     563 S           -1.3630     4.0880     4.0880 S             1 RES     
     564 S           39.5140     4.0880     1.3630 S             1 RES     
     565 S            4.0880    -1.3630     4.0880 S             1 RES     
     566 S            4.0880    39.5140     1.3630 S             1 RES     
     567 S            4.0880     4.0880    -1.3630 S             1 RES     
     568 S            1.3630     4.0880     6.8130 S             1 RES     
     569 S            4.0880     1.3630     6.8130 S             1 RES     
     570 S           -1.3630     4.0880    -1.3630 S             1 RES     
     571 S           -1.3630     6.8130     1.3630 S             1 RES     
     572 S            1.3630     6.8130    -1.3630 S             1 RES     
     573 S           -1.3630     6.8130     6.8130 S             1 RES     
     574 S           36.7890     4.0880    -1.3630 S             1 RES     
     575 S           39.5140     6.8130    -1.3630 S             1 RES     
     576 S           36.7890     6.8130     6.8130 S             1 RES     
     577 S           39.5140     4.0880     6.8130 S             1 RES     
     578 S           39.5140     6.8130     4.0880 S             1 RES     
     579 S           -1.3630    31.3390    -1.3630 S             1 RES     
     580 S           -1.3630    34.0640     1.3630 S             1 RES     
     581 S            1.3630    34.0640    -1.3630 S             1 RES     
     582 S           -1.3630    31.3390     4.0880 S             1 RES     
     583 S           -1.3630    34.0640     6.8130 S             1 RES     
     584 S            1.3630    31.3390     6.8130 S             1 RES     
     585 S           36.7890    31.3390    -1.3630 S             1 RES     
     586 S           39.5140    31.3390     1.3630 S             1 RES     
     587 S           39.5140    34.0640    -1.3630 S             1 RES     
     588 S           36.7890    34.0640     6.8130 S             1 RES     
     589 S           39.5140    31.3390     6.8130 S             1 RES     
     590 S           39.5140    34.0640     4.0880 S             1 RES     
     591 S            4.0880    -1.3630    -1.3630 S             1 RES     
     592 S            6.8130    -1.3630     1.3630 S             1 RES     
     593 S            6.8130     1.3630    -1.3630 S             1 RES     
     594 S            6.8130    -1.3630     6.8130 S             1 RES     
     595 S            4.0880    36.7890    -1.3630 S             1 RES     
     596 S            6.8130    39.5140    -1.3630 S             1 RES     
     597 S            4.0880    39.5140     6.8130 S             1 RES     
     598 S            6.8130    36.7890     6.8130 S             1 RES     
     599 S            6.8130    39.5140     4.0880 S             1 RES     
     600 S           31.3390    -1.3630    -1.3630 S             1 RES     
     601 S           34.0640    -1.3630     1.3630 S             1 RES     
     602 S           34.0640     1.3630    -1.3630 S             1 RES     
     603 S           31.3390    -1.3630     4.0880 S             1 RES     
     604 S           31.3390     1.3630     6.8130 S             1 RES     
     605 S           34.0640    -1.3630     6.8130 S             1 RES     
     606 S           31.3390    36.7890    -1.3630 S             1 RES     
     607 S           31.3390    39.5140     1.3630 S             1 RES     
     608 S           34.0640    39.5140    -1.3630 S             1 RES     
     609 S           31.3390    39.5140     6.8130 S             1 RES     
     610 S           34.0640    36.7890     6.8130 S             1 RES     
     611 S           34.0640    39.5140     4.0880 S             1 RES     
     612 S           -1.3630     9.5380     4.0880 S             1 RES     
     613 S           39.5140     9.5380     1.3630 S             1 RES     
     614 S            9.5380    -1.3630     4.0880 S             1 RES     
     615 S            9.5380    39.5140     1.3630 S             1 RES     
     616 S            4.0880     9.5380    -1.3630 S             1 RES     
     617 S            1.3630     9.5380     6.8130 S             1 RES     
     618 S            4.0880     6.8130     6.8130 S             1 RES     
     619 S            4.0880    34.0640     6.8130 S             1 RES     
     620 S            9.5380     4.0880    -1.3630 S             1 RES     
     621 S            6.8130     4.0880     6.8130 S             1 RES     
     622 S            9.5380     1.3630     6.8130 S             1 RES     
     623 S           34.0640     4.0880     6.8130 S             1 RES     
     624 S           -1.3630     9.5380    -1.3630 S             1 RES     
     625 S           -1.3630    12.2630     1.3630 S             1 RES     
     626 S            1.3630    12.2630    -1.3630 S             1 RES     
     627 S           -1.3630    12.2630     6.8130 S             1 RES     
     628 S           36.7890     9.5380    -1.3630 S             1 RES     
     629 S           39.5140    12.2630    -1.3630 S             1 RES     
     630 S           36.7890    12.2630     6.8130 S             1 RES     
     631 S           39.5140     9.5380     6.8130 S             1 RES     
     632 S           39.5140    12.2630     4.0880 S             1 RES     
     633 S           -1.3630    25.8890    -1.3630 S             1 RES     
     634 S           -1.3630    28.6140     1.3630 S             1 RES     
     635 S            1.3630    28.6140    -1.3630 S             1 RES     
     636 S           -1.3630    25.8890     4.0880 S             1 RES     
     637 S           -1.3630    28.6140     6.8130 S             1 RES     
     638 S            1.3630    25.8890     6.8130 S             1 RES     
     639 S           36.7890    25.8890    -1.3630 S             1 RES     
     640 S           39.5140    25.8890     1.3630 S             1 RES     
     641 S           39.5140    28.6140    -1.3630 S             1 RES     
     642 S           36.7890    28.6140     6.8130 S             1 RES     
     643 S           39.5140    25.8890     6.8130 S             1 RES     
     644 S           39.5140    28.6140     4.0880 S             1 RES     
     645 S            9.5380    -1.3630    -1.3630 S             1 RES     
     646 S           12.2630    -1.3630     1.3630 S             1 RES     
     647 S           12.2630     1.3630    -1.3630 S             1 RES     
     648 S           12.2630    -1.3630     6.8130 S             1 RES     
     649 S            9.5380    36.7890    -1.3630 S             1 RES     
     650 S           12.2630    39.5140    -1.3630 S             1 RES     
     651 S            9.5380    39.5140     6.8130 S             1 RES     
     652 S           12.2630    36.7890     6.8130 S             1 RES     
     653 S           12.2630    39.5140     4.0880 S             1 RES     
     654 S           25.8890    -1.3630    -1.3630 S             1 RES     
     655 S           28.6140    -1.3630     1.3630 S             1 RES     
     656 S           28.6140     1.3630    -1.3630 S             1 RES     
     657 S           25.8890    -1.3630     4.0880 S             1 RES     
     658 S           25.8890     1.3630     6.8130 S             1 RES     
     659 S           28.6140    -1.3630     6.8130 S             1 RES     
     660 S           25.8890    36.7890    -1.3630 S             1 RES     
     661 S           25.8890    39.5140     1.3630 S             1 RES     
     662 S           28.6140    39.5140    -1.3630 S             1 RES     
     663 S           25.8890    39.5140     6.8130 S             1 RES     
     664 S           28.6140    36.7890     6.8130 S             1 RES     
     665 S           28.6140    39.5140     4.0880 S             1 RES     
     666 S           -1.3630    14.9880     4.0880 S             1 RES     
     667 S           39.5140    14.9880     1.3630 S             1 RES     
     668 S           14.9880    -1.3630     4.0880 S             1 RES     
     669 S           14.9880    39.5140     1.3630 S             1 RES     
     670 S            4.0880    14.9880    -1.3630 S             1 RES     
     671 S            1.3630    14.9880     6.8130 S             1 RES     
     672 S            4.0880    12.2630     6.8130 S             1 RES     
     673 S            4.0880    31.3390    -1.3630 S             1 RES     
     674 S            4.0880    28.6140     6.8130 S             1 RES     
     675 S           14.9880     4.0880    -1.3630 S             1 RES     
     676 S           12.2630     4.0880     6.8130 S             1 RES     
     677 S           14.9880     1.3630     6.8130 S             1 RES     
     678 S           31.3390     4.0880    -1.3630 S             1 RES     
     679 S           28.6140     4.0880     6.8130 S             1 RES     
     680 S           -1.3630    14.9880    -1.3630 S             1 RES     
     681 S           -1.3630    17.7130     1.3630 S             1 RES     
     682 S            1.3630    17.7130    -1.3630 S             1 RES     
     683 S           -1.3630    17.7130     6.8130 S             1 RES     
     684 S           36.7890    14.9880    -1.3630 S             1 RES     
     685 S           39.5140    17.7130    -1.3630 S             1 RES     
     686 S           36.7890    17.7130     6.8130 S             1 RES     
     687 S           39.5140    14.9880     6.8130 S             1 RES     
     688 S           39.5140    17.7130     4.0880 S             1 RES     
     689 S           -1.3630    20.4390    -1.3630 S             1 RES     
     690 S           -1.3630    23.1640     1.3630 S             1 RES     
     691 S            1.3630    23.1640    -1.3630 S             1 RES     
     692 S           -1.3630    20.4390     4.0880 S             1 RES     
     693 S           -1.3630    23.1640     6.8130 S             1 RES     
     694 S            1.3630    20.4390     6.8130 S             1 RES     
     695 S           36.7890    20.4390    -1.3630 S             1 RES     
     696 S           39.5140    20.4390     1.3630 S             1 RES     
     697 S           39.5140    23.1640    -1.3630 S             1 RES     
     698 S           36.7890    23.1640     6.8130 S             1 RES     
     699 S           39.5140    20.4390     6.8130 S             1 RES     
     700 S           39.5140    23.1640     4.0880 S             1 RES     
     701 S           14.9880    -1.3630    -1.3630 S             1 RES     
     702 S           17.7130    -1.3630     1.3630 S             1 RES     
     703 S           17.7130     1.3630    -1.3630 S             1 RES     
     704 S           17.7130    -1.3630     6.8130 S             1 RES     
     705 S           14.9880    36.7890    -1.3630 S             1 RES     
     706 S           17.7130    39.5140    -1.3630 S             1 RES     
     707 S           14.9880    39.5140     6.8130 S             1 RES     
     708 S           17.7130    36.7890     6.8130 S             1 RES     
     709 S           17.7130    39.5140     4.0880 S             1 RES     
     710 S           20.4390    -1.3630    -1.3630 S             1 RES     
     711 S           23.1640    -1.3630     1.3630 S             1 RES     
     712 S           23.1640     1.3630    -1.3630 S             1 RES     
     713 S           20.4390    -1.3630     4.0880 S             1 RES     
     714 S           20.4390     1.3630     6.8130 S             1 RES     
     715 S           23.1640    -1.3630     6.8130 S             1 RES     
     716 S           20.4390    36.7890    -1.3630 S             1 RES     
     717 S           20.4390    39.5140     1.3630 S             1 RES     
     718 S           23.1640    39.5140    -1.3630 S             1 RES     
     719 S           20.4390    39.5140     6.8130 S             1 RES     
     720 S           23.1640    36.7890     6.8130 S             1 RES     
     721 S           23.1640    39.5140     4.0880 S             1 RES     
     722 S            4.0880    20.4390    -1.3630 S             1 RES     
     723 S            4.0880    17.7130     6.8130 S             1 RES     
     724 S            4.0880    25.8890    -1.3630 S             1 RES     
     725 S            4.0880    23.1640     6.8130 S             1 RES     
     726 S           20.4390     4.0880    -1.3630 S             1 RES     
     727 S           17.7130     4.0880     6.8130 S             1 RES     
     728 S           25.8890     4.0880    -1.3630 S             1 RES     
     729 S           23.1640     4.0880     6.8130 S             1 RES     
     730 S            6.8130     6.8130    -1.3630 S             1 RES     
     731 S           31.3390    31.3390    -1.3630 S             1 RES     
     732 S           34.0640    34.0640    -1.3630 S             1 RES     
     733 S           31.3390    34.0640     6.8130 S             1 RES     
     734 S           34.0640    31.3390     6.8130 S             1 RES     
     735 S           34.0640     6.8130    -1.3630 S             1 RES     
     736 S           31.3390     6.8130     6.8130 S             1 RES     
     737 S            6.8130    34.0640    -1.3630 S             1 RES     
     738 S            6.8130    31.3390     6.8130 S             1 RES     
     739 S            9.5380     9.5380    -1.3630 S             1 RES     
     740 S            6.8130     9.5380     6.8130 S             1 RES     
     741 S            9.5380     6.8130     6.8130 S             1 RES     
     742 S           34.0640     9.5380     6.8130 S             1 RES     
     743 S            9.5380    34.0640     6.8130 S             1 RES     
     744 S            6.8130    12.2630    -1.3630 S             1 RES     
     745 S           31.3390    25.8890    -1.3630 S             1 RES     
     746 S           34.0640    28.6140    -1.3630 S             1 RES     
     747 S           31.3390    28.6140     6.8130 S             1 RES     
     748 S           34.0640    25.8890     6.8130 S             1 RES     
     749 S           31.3390     9.5380    -1.3630 S             1 RES     
     750 S           34.0640    12.2630    -1.3630 S             1 RES     
     751 S           31.3390    12.2630     6.8130 S             1 RES     
     752 S            6.8130    28.6140    -1.3630 S             1 RES     
     753 S            6.8130    25.8890     6.8130 S             1 RES     
     754 S           12.2630     6.8130    -1.3630 S             1 RES     
     755 S           25.8890    31.3390    -1.3630 S             1 RES     
     756 S           28.6140    34.0640    -1.3630 S             1 RES     
     757 S           25.8890    34.0640     6.8130 S             1 RES     
     758 S           28.6140    31.3390     6.8130 S             1 RES     
     759 S            9.5380    31.3390    -1.3630 S             1 RES     
     760 S           12.2630    34.0640    -1.3630 S             1 RES     
     761 S           12.2630    31.3390     6.8130 S             1 RES     
     762 S           28.6140     6.8130    -1.3630 S             1 RES     
     763 S           25.8890     6.8130     6.8130 S             1 RES     
     764 S            9.5380    14.9880    -1.3630 S             1 RES     
     765 S            6.8130    14.9880     6.8130 S             1 RES     
     766 S            9.5380    12.2630     6.8130 S             1 RES     
     767 S           34.0640    14.9880     6.8130 S             1 RES     
     768 S            9.5380    28.6140     6.8130 S             1 RES     
     769 S           14.9880     9.5380    -1.3630 S             1 RES     
     770 S           12.2630     9.5380     6.8130 S             1 RES     
     771 S           14.9880     6.8130     6.8130 S             1 RES     
     772 S           14.9880    34.0640     6.8130 S             1 RES     
     773 S           28.6140     9.5380     6.8130 S             1 RES     
     774 S            6.8130    17.7130    -1.3630 S             1 RES     
     775 S           31.3390    20.4390    -1.3630 S             1 RES     
     776 S           34.0640    23.1640    -1.3630 S             1 RES     
     777 S           31.3390    23.1640     6.8130 S             1 RES     
     778 S           34.0640    20.4390     6.8130 S             1 RES     
     779 S           31.3390    14.9880    -1.3630 S             1 RES     
     780 S           34.0640    17.7130    -1.3630 S             1 RES     
     781 S           31.3390    17.7130     6.8130 S             1 RES     
     782 S            6.8130    23.1640    -1.3630 S             1 RES     
     783 S            6.8130    20.4390     6.8130 S             1 RES     
     784 S           17.7130     6.8130    -1.3630 S             1 RES     
     785 S           20.4390    31.3390    -1.3630 S             1 RES     
     786 S           23.1640    34.0640    -1.3630 S             1 RES     
     787 S           20.4390    34.0640     6.8130 S             1 RES     
     788 S           23.1640    31.3390     6.8130 S             1 RES     
     789 S           14.9880    31.3390    -1.3630 S             1 RES     
     790 S           17.7130    34.0640    -1.3630 S             1 RES     
     791 S           17.7130    31.3390     6.8130 S             1 RES     
     792 S           23.1640     6.8130    -1.3630 S             1 RES     
     793 S           20.4390     6.8130     6.8130 S             1 RES     
     794 S            9.5380    20.4390    -1.3630 S             1 RES     
     795 S            9.5380    17.7130     6.8130 S             1 RES     
     796 S            9.5380    25.8890    -1.3630 S             1 RES     
     797 S            9.5380    23.1640     6.8130 S             1 RES     
     798 S           20.4390     9.5380    -1.3630 S             1 RES     
     799 S           17.7130     9.5380     6.8130 S             1 RES     
     800 S           25.8890     9.5380    -1.3630 S             1 RES     
     801 S           23.1640     9.5380     6.8130 S             1 RES     
     802 S           12.2630    12.2630    -1.3630 S             1 RES     
     803 S           25.8890    25.8890    -1.3630 S             1 RES     
     804 S           28.6140    28.6140    -1.3630 S             1 RES     
     805 S           25.8890    28.6140     6.8130 S             1 RES     
     806 S           28.6140    25.8890     6.8130 S             1 RES     
     807 S           28.6140    12.2630    -1.3630 S             1 RES     
     808 S           25.8890    12.2630     6.8130 S             1 RES     
     809 S           12.2630    28.6140    -1.3630 S             1 RES     
     810 S           12.2630    25.8890     6.8130 S             1 RES     
     811 S           14.9880    14.9880    -1.3630 S             1 RES     
     812 S           12.2630    14.9880     6.8130 S             1 RES     
     813 S           14.9880    12.2630     6.8130 S             1 RES     
     814 S           28.6140    14.9880     6.8130 S             1 RES     
     815 S           14.9880    28.6140     6.8130 S             1 RES     
     816 S           12.2630    17.7130    -1.3630 S             1 RES     
     817 S           25.8890    20.4390    -1.3630 S             1 RES     
     818 S           28.6140    23.1640    -1.3630 S             1 RES     
     819 S           25.8890    23.1640     6.8130 S             1 RES     
     820 S           28.6140    20.4390     6.8130 S             1 RES     
     821 S           25.8890    14.9880    -1.3630 S             1 RES     
     822 S           28.6140    17.7130    -1.3630 S             1 RES     
     823 S           25.8890    17.7130     6.8130 S             1 RES     
     824 S           12.2630    23.1640    -1.3630 S             1 RES     
     825 S           12.2630    20.4390     6.8130 S             1 RES     
     826 S           17.7130    12.2630    -1.3630 S             1 RES     
     827 S           20.4390    25.8890    -1.3630 S             1 RES     
     828 S           23.1640    28.6140    -1.3630 S             1 RES     
     829 S           20.4390    28.6140     6.8130 S             1 RES     
     830 S           23.1640    25.8890     6.8130 S             1 RES     
     831 S           14.9880    25.8890    -1.3630 S             1 RES     
     832 S           17.7130    28.6140    -1.3630 S             1 RES     
     833 S           17.7130    25.8890     6.8130 S             1 RES     
     834 S           23.1640    12.2630    -1.3630 S             1 RES     
     835 S           20.4390    12.2630     6.8130 S             1 RES     
     836 S           14.9880    20.4390    -1.3630 S             1 RES     
     837 S           14.9880    17.7130     6.8130 S             1 RES     
     838 S           14.9880    23.1640     6.8130 S             1 RES     
     839 S           20.4390    14.9880    -1.3630 S             1 RES     
     840 S           17.7130    14.9880     6.8130 S             1 RES     
     841 S           23.1640    14.9880     6.8130 S             1 RES     
     842 S           17.7130    17.7130    -1.3630 S             1 RES     
     843 S           20.4390    20.4390    -1.3630 S             1 RES     
     844 S           23.1640    23.1640    -1.3630 S             1 RES     
     845 S           20.4390    23.1640     6.8130 S             1 RES     
     846 S           23.1640    20.4390     6.8130 S             1 RES     
     847 S           23.1640    17.7130    -1.3630 S             1 RES     
     848 S           20.4390    17.7130     6.8130 S             1 RES     
     849 S           17.7130    23.1640    -1.3630 S             1 RES     
     850 S           17.7130    20.4390     6.8130 S             1 RES     
     851 C           30.5154    23.0436    21.9150 C             1 RES     
     852 C           30.4449    24.3877    21.1899 C             1 RES     
     853 C           31.4630    24.4981    20.0445 C             1 RES     
     854 C           31.1295    23.5656    18.8667 C             1 RES     
     855 C           31.9853    23.8568    17.6241 C             1 RES     
     856 C           33.4701    23.5109    17.8370 C             1 RES     
     857 C           34.2751    23.5449    16.5287 C             1 RES     
     858 C           34.4789    24.9726    15.9990 C             1 RES     
     859 C           35.3395    24.9712    14.7621 C             1 RES     
     860 C           34.9035    24.6840    13.5207 C             1 RES     
     861 C           33.4712    24.3675    13.1542 C             1 RES     
     862 C           33.3949    23.1531    12.2205 C             1 RES     
     863 C           33.7213    21.8404    12.9540 C             1 RES     
     864 C           33.8018    20.6394    11.9888 C             1 RES     
     865 C           35.2435    20.2098    11.6661 C             1 RES     
     866 C           36.0202    21.2717    10.8751 C             1 RES     
     867 C           37.3987    20.7490    10.4612 C             1 RES     
     868 C           38.1520    21.8010     9.7105 C             1 RES     
     869 O           38.1520    21.8010     8.4500 O             1 RES     
     870 O           38.8187    22.8048    10.4065 O             1 RES     
     871 H           30.1800    22.2210    21.2496 H             1 RES     
     872 H           29.8466    23.0665    22.8010 H             1 RES     
     873 H           31.5518    22.8415    22.2603 H             1 RES     
     874 H           30.6568    25.1926    21.9267 H             1 RES     
     875 H           29.4151    24.5492    20.8035 H             1 RES     
     876 H           31.4621    25.5507    19.6860 H             1 RES     
     877 H           32.4788    24.2737    20.4349 H             1 RES     
     878 H           31.2674    22.5048    19.1669 H             1 RES     
     879 H           30.0623    23.7017    18.5869 H             1 RES     
     880 H           31.5866    23.2474    16.7834 H             1 RES     
     881 H           31.8758    24.9270    17.3471 H             1 RES     
     882 H           33.9269    24.2115    18.5687 H             1 RES     
     883 H           33.5458    22.4844    18.2578 H             1 RES     
     884 H           33.7738    22.9109    15.7683 H             1 RES     
     885 H           35.2735    23.0950    16.7259 H             1 RES     
     886 H           34.9984    25.5696    16.7795 H             1 RES     
     887 H           33.5133    25.4781    15.7914 H             1 RES     
     888 H           36.3844    25.2425    14.8821 H             1 RES     
     889 H           35.6216    24.7528    12.7081 H             1 RES     
     890 H           32.8271    24.1864    14.0378 H             1 RES     
     891 H           33.0553    25.2491    12.6221 H             1 RES     
     892 H           34.0772    23.3052    11.3574 H             1 RES     
     893 H           32.3620    23.0854    11.8145 H             1 RES     
     894 H           34.6679    21.9393    13.5285 H             1 RES     
     895 H           32.9132    21.6492    13.6943 H             1 RES     
     896 H           33.2468    20.8404    11.0458 H             1 RES     
     897 H           33.2987    19.7723    12.4707 H             1 RES     
     898 H           35.1962    19.2747    11.0659 H             1 RES     
     899 H           35.7824    19.9756    12.6107 H             1 RES     
     900 H           35.4444    21.5511     9.9650 H             1 RES     
     901 H           36.1571    22.1761    11.5068 H             1 RES     
     902 H           37.9806    20.4654    11.3649 H             1 RES     
     903 H           37.2853    19.8452     9.8227 H             1 RES     
     904 H           39.3135    23.5388     9.9140 H             1 RES     
     905 C           11.4394    20.3186    21.9150 C             1 RES     
     906 C           11.3689    21.6627    21.1899 C             1 RES     
     907 C           12.3870    21.7731    20.0445 C             1 RES     
     908 C           12.0535    20.8406    18.8667 C             1 RES     
     909 C           12.9093    21.1318    17.6241 C             1 RES     
     910 C           14.3941    20.7859    17.8370 C             1 RES     
     911 C           15.1991    20.8199    16.5287 C             1 RES     
     912 C           15.4029    22.2476    15.9990 C             1 RES     
     913 C           16.2635    22.2462    14.7621 C             1 RES     
     914 C           15.8275    21.9590    13.5207 C             1 RES     
     915 C           14.3952    21.6425    13.1542 C             1 RES     
     916 C           14.3189    20.4281    12.2205 C             1 RES     
     917 C           14.6453    19.1154    12.9540 C             1 RES     
     918 C           14.7258    17.9144    11.9888 C             1 RES     
     919 C           16.1675    17.4848    11.6661 C             1 RES     
     920 C           16.9442    18.5467    10.8751 C             1 RES     
     921 C           18.3227    18.0240    10.4612 C             1 RES     
     922 C           19.0760    19.0760     9.7105 C             1 RES     
     923 O           19.0760    19.0760     8.4500 O             1 RES     
     924 O           19.7427    20.0798    10.4065 O             1 RES     
     925 H           11.1040    19.4960    21.2496 H             1 RES     
     926 H           10.7706    20.3415    22.8010 H             1 RES     
     927 H           12.4758    20.1165    22.2603 H             1 RES     
     928 H           11.5808    22.4676    21.9267 H             1 RES     
     929 H           10.3391    21.8242    20.8035 H             1 RES     
     930 H           12.3861    22.8257    19.6860 H             1 RES     
     931 H           13.4028    21.5487    20.4349 H             1 RES     
     932 H           12.1914    19.7798    19.1669 H             1 RES     
     933 H           10.9863    20.9767    18.5869 H             1 RES     
     934 H           12.5106    20.5224    16.7834 H             1 RES     
     935 H           12.7998    22.2020    17.3471 H             1 RES     
     936 H           14.8509    21.4865    18.5687 H             1 RES     
     937 H           14.4698    19.7594    18.2578 H             1 RES     
     938 H           14.6978    20.1859    15.7683 H             1 RES     
     939 H           16.1975    20.3700    16.7259 H             1 RES     
     940 H           15.9224    22.8446    16.7795 H             1 RES     
     941 H           14.4373    22.7531    15.7914 H             1 RES     
     942 H           17.3084    22.5175    14.8821 H             1 RES     
     943 H           16.5456    22.0278    12.7081 H             1 RES     
     944 H           13.7511    21.4614    14.0378 H             1 RES     
     945 H           13.9793    22.5241    12.6221 H             1 RES     
     946 H           15.0012    20.5802    11.3574 H             1 RES     
     947 H           13.2860    20.3604    11.8145 H             1 RES     
     948 H           15.5919    19.2143    13.5285 H             1 RES     
     949 H           13.8372    18.9242    13.6943 H             1 RES     
     950 H           14.1708    18.1154    11.0458 H             1 RES     
     951 H           14.2227    17.0473    12.4707 H             1 RES     
     952 H           16.1202    16.5497    11.0659 H             1 RES     
     953 H           16.7064    17.2506    12.6107 H             1 RES     
     954 H           16.3684    18.8261     9.9650 H             1 RES     
     955 H           17.0811    19.4511    11.5068 H             1 RES     
     956 H           18.9046    17.7404    11.3649 H             1 RES     
     957 H           18.2093    17.1202     9.8227 H             1 RES     
     958 H           20.2375    20.8138     9.9140 H             1 RES     
     959 C           14.1644    33.9446    21.9150 C             1 RES     
     960 C           14.0939    35.2887    21.1899 C             1 RES     
     961 C           15.1120    35.3991    20.0445 C             1 RES     
     962 C           14.7785    34.4666    18.8667 C             1 RES     
     963 C           15.6343    34.7578    17.6241 C             1 RES     
     964 C           17.1191    34.4119    17.8370 C             1 RES     
     965 C           17.9241    34.4459    16.5287 C             1 RES     
     966 C           18.1279    35.8736    15.9990 C             1 RES     
     967 C           18.9885    35.8722    14.7621 C             1 RES     
     968 C           18.5525    35.5850    13.5207 C             1 RES     
     969 C           17.1202    35.2685    13.1542 C             1 RES     
     970 C           17.0439    34.0541    12.2205 C             1 RES     
     971 C           17.3703    32.7414    12.9540 C             1 RES     
     972 C           17.4508    31.5404    11.9888 C             1 RES     
     973 C           18.8925    31.1108    11.6661 C             1 RES     
     974 C           19.6692    32.1727    10.8751 C             1 RES     
     975 C           21.0477    31.6500    10.4612 C             1 RES     
     976 C           21.8010    32.7020     9.7105 C             1 RES     
     977 O           21.8010    32.7020     8.4500 O             1 RES     
     978 O           22.4677    33.7058    10.4065 O             1 RES     
     979 H           13.8290    33.1220    21.2496 H             1 RES     
     980 H           13.4956    33.9675    22.8010 H             1 RES     
     981 H           15.2008    33.7425    22.2603 H             1 RES     
     982 H           14.3058    36.0936    21.9267 H             1 RES     
     983 H           13.0641    35.4502    20.8035 H             1 RES     
     984 H           15.1111    36.4517    19.6860 H             1 RES     
     985 H           16.1278    35.1747    20.4349 H             1 RES     
     986 H           14.9164    33.4058    19.1669 H             1 RES     
     987 H           13.7113    34.6027    18.5869 H             1 RES     
     988 H           15.2356    34.1484    16.7834 H             1 RES     
     989 H           15.5248    35.8280    17.3471 H             1 RES     
     990 H           17.5759    35.1125    18.5687 H             1 RES     
     991 H           17.1948    33.3854    18.2578 H             1 RES     
     992 H           17.4228    33.8119    15.7683 H             1 RES     
     993 H           18.9225    33.9960    16.7259 H             1 RES     
     994 H           18.6474    36.4706    16.7795 H             1 RES     
     995 H           17.1623    36.3791    15.7914 H             1 RES     
     996 H           20.0334    36.1435    14.8821 H             1 RES     
     997 H           19.2706    35.6538    12.7081 H             1 RES     
     998 H           16.4761    35.0874    14.0378 H             1 RES     
     999 H           16.7043    36.1501    12.6221 H             1 RES     
    1000 H           17.7262    34.2062    11.3574 H             1 RES     
    1001 H           16.0110    33.9864    11.8145 H             1 RES     
    1002 H           18.3169    32.8403    13.5285 H             1 RES     
    1003 H           16.5622    32.5502    13.6943 H             1 RES     
    1004 H           16.8958    31.7414    11.0458 H             1 RES     
    1005 H           16.9477    30.6733    12.4707 H             1 RES     
    1006 H           18.8452    30.1757    11.0659 H             1 RES     
    1007 H           19.4314    30.8766    12.6107 H             1 RES     
    1008 H           19.0934    32.4521     9.9650 H             1 RES     
    1009 H           19.8061    33.0771    11.5068 H             1 RES     
    1010 H           21.6296    31.3664    11.3649 H             1 RES     
    1011 H           20.9343    30.7462     9.8227 H             1 RES     
    1012 H           22.9625    34.4398     9.9140 H             1 RES     
    1013 C            0.5384    20.3186    21.9150 C             1 RES     
    1014 C            0.4679    21.6627    21.1899 C             1 RES     
    1015 C            1.4860    21.7731    20.0445 C             1 RES     
    1016 C            1.1525    20.8406    18.8667 C             1 RES     
    1017 C            2.0083    21.1318    17.6241 C             1 RES     
    1018 C            3.4931    20.7859    17.8370 C             1 RES     
    1019 C            4.2981    20.8199    16.5287 C             1 RES     
    1020 C            4.5019    22.2476    15.9990 C             1 RES     
    1021 C            5.3625    22.2462    14.7621 C             1 RES     
    1022 C            4.9265    21.9590    13.5207 C             1 RES     
    1023 C            3.4942    21.6425    13.1542 C             1 RES     
    1024 C            3.4179    20.4281    12.2205 C             1 RES     
    1025 C            3.7443    19.1154    12.9540 C             1 RES     
    1026 C            3.8248    17.9144    11.9888 C             1 RES     
    1027 C            5.2665    17.4848    11.6661 C             1 RES     
    1028 C            6.0432    18.5467    10.8751 C             1 RES     
    1029 C            7.4217    18.0240    10.4612 C             1 RES     
    1030 C            8.1750    19.0760     9.7105 C             1 RES     
    1031 O            8.1750    19.0760     8.4500 O             1 RES     
    1032 O            8.8417    20.0798    10.4065 O             1 RES     
    1033 H            0.2030    19.4960    21.2496 H             1 RES     
    1034 H           -0.1304    20.3415    22.8010 H             1 RES     
    1035 H            1.5748    20.1165    22.2603 H             1 RES     
    1036 H            0.6798    22.4676    21.9267 H             1 RES     
    1037 H           -0.5619    21.8242    20.8035 H             1 RES     
    1038 H            1.4851    22.8257    19.6860 H             1 RES     
    1039 H            2.5018    21.5487    20.4349 H             1 RES     
    1040 H            1.2904    19.7798    19.1669 H             1 RES     
    1041 H            0.0853    20.9767    18.5869 H             1 RES     
    1042 H            1.6096    20.5224    16.7834 H             1 RES     
    1043 H            1.8988    22.2020    17.3471 H             1 RES     
    1044 H            3.9499    21.4865    18.5687 H             1 RES     
    1045 H            3.5688    19.7594    18.2578 H             1 RES     
    1046 H            3.7968    20.1859    15.7683 H             1 RES     
    1047 H            5.2965    20.3700    16.7259 H             1 RES     
    1048 H            5.0214    22.8446    16.7795 H             1 RES     
    1049 H            3.5363    22.7531    15.7914 H             1 RES     
    1050 H            6.4074    22.5175    14.8821 H             1 RES     
    1051 H            5.6446    22.0278    12.7081 H             1 RES     
    1052 H            2.8501    21.4614    14.0378 H             1 RES     
    1053 H            3.0783    22.5241    12.6221 H             1 RES     
    1054 H            4.1002    20.5802    11.3574 H             1 RES     
    1055 H            2.3850    20.3604    11.8145 H             1 RES     
    1056 H            4.6909    19.2143    13.5285 H             1 RES     
    1057 H            2.9362    18.9242    13.6943 H             1 RES     
    1058 H            3.2698    18.1154    11.0458 H             1 RES     
    1059 H            3.3217    17.0473    12.4707 H             1 RES     
    1060 H            5.2192    16.5497    11.0659 H             1 RES     
    1061 H            5.8054    17.2506    12.6107 H             1 RES     
    1062 H            5.4674    18.8261     9.9650 H             1 RES     
    1063 H            6.1801    19.4511    11.5068 H             1 RES     
    1064 H            8.0036    17.7404    11.3649 H             1 RES     
    1065 H            7.3083    17.1202     9.8227 H             1 RES     
    1066 H            9.3365    20.8138     9.9140 H             1 RES     
    1067 C           11.4394     3.9676    21.9150 C             1 RES     
    1068 C           11.3689     5.3117    21.1899 C             1 RES     
    1069 C           12.3870     5.4221    20.0445 C             1 RES     
    1070 C           12.0535     4.4896    18.8667 C             1 RES     
    1071 C           12.9093     4.7808    17.6241 C             1 RES     
    1072 C           14.3941     4.4349    17.8370 C             1 RES     
    1073 C           15.1991     4.4689    16.5287 C             1 RES     
    1074 C           15.4029     5.8966    15.9990 C             1 RES     
    1075 C           16.2635     5.8952    14.7621 C             1 RES     
    1076 C           15.8275     5.6080    13.5207 C             1 RES     
    1077 C           14.3952     5.2915    13.1542 C             1 RES     
    1078 C           14.3189     4.0771    12.2205 C             1 RES     
    1079 C           14.6453     2.7644    12.9540 C             1 RES     
    1080 C           14.7258     1.5634    11.9888 C             1 RES     
    1081 C           16.1675     1.1338    11.6661 C             1 RES     
    1082 C           16.9442     2.1957    10.8751 C             1 RES     
    1083 C           18.3227     1.6730    10.4612 C             1 RES     
    1084 C           19.0760     2.7250     9.7105 C             1 RES     
    1085 O           19.0760     2.7250     8.4500 O             1 RES     
    1086 O           19.7427     3.7288    10.4065 O             1 RES     
    1087 H           11.1040     3.1450    21.2496 H             1 RES     
    1088 H           10.7706     3.9905    22.8010 H             1 RES     
    1089 H           12.4758     3.7655    22.2603 H             1 RES     
    1090 H           11.5808     6.1166    21.9267 H             1 RES     
    1091 H           10.3391     5.4732    20.8035 H             1 RES     
    1092 H           12.3861     6.4747    19.6860 H             1 RES     
    1093 H           13.4028     5.1977    20.4349 H             1 RES     
    1094 H           12.1914     3.4288    19.1669 H             1 RES     
    1095 H           10.9863     4.6257    18.5869 H             1 RES     
    1096 H           12.5106     4.1714    16.7834 H             1 RES     
    1097 H           12.7998     5.8510    17.3471 H             1 RES     
    1098 H           14.8509     5.1355    18.5687 H             1 RES     
    1099 H           14.4698     3.4084    18.2578 H             1 RES     
    1100 H           14.6978     3.8349    15.7683 H             1 RES     
    1101 H           16.1975     4.0190    16.7259 H             1 RES     
    1102 H           15.9224     6.4936    16.7795 H             1 RES     
    1103 H           14.4373     6.4021    15.7914 H             1 RES     
    1104 H           17.3084     6.1665    14.8821 H             1 RES     
    1105 H           16.5456     5.6768    12.7081 H             1 RES     
    1106 H           13.7511     5.1104    14.0378 H             1 RES     
    1107 H           13.9793     6.1731    12.6221 H             1 RES     
    1108 H           15.0012     4.2292    11.3574 H             1 RES     
    1109 H           13.2860     4.0094    11.8145 H             1 RES     
    1110 H           15.5919     2.8633    13.5285 H             1 RES     
    1111 H           13.8372     2.5732    13.6943 H             1 RES     
    1112 H           14.1708     1.7644    11.0458 H             1 RES     
    1113 H           14.2227     0.6963    12.4707 H             1 RES     
    1114 H           16.1202     0.1987    11.0659 H             1 RES     
    1115 H           16.7064     0.8996    12.6107 H             1 RES     
    1116 H           16.3684     2.4751     9.9650 H             1 RES     
    1117 H           17.0811     3.1001    11.5068 H             1 RES     
    1118 H           18.9046     1.3894    11.3649 H             1 RES     
    1119 H           18.2093     0.7692     9.8227 H             1 RES     
    1120 H           20.2375     4.4628     9.9140 H             1 RES     
    1121 C           27.7904     3.9676    21.9150 C             1 RES     
    1122 C           27.7199     5.3117    21.1899 C             1 RES     
    1123 C           28.7380     5.4221    20.0445 C             1 RES     
    1124 C           28.4045     4.4896    18.8667 C             1 RES     
    1125 C           29.2603     4.7808    17.6241 C             1 RES     
    1126 C           30.7451     4.4349    17.8370 C             1 RES     
    1127 C           31.5501     4.4689    16.5287 C             1 RES     
    1128 C           31.7539     5.8966    15.9990 C             1 RES     
    1129 C           32.6145     5.8952    14.7621 C             1 RES     
    1130 C           32.1785     5.6080    13.5207 C             1 RES     
    1131 C           30.7462     5.2915    13.1542 C             1 RES     
    1132 C           30.6699     4.0771    12.2205 C             1 RES     
    1133 C           30.9963     2.7644    12.9540 C             1 RES     
    1134 C           31.0768     1.5634    11.9888 C             1 RES     
    1135 C           32.5185     1.1338    11.6661 C             1 RES     
    1136 C           33.2952     2.1957    10.8751 C             1 RES     
    1137 C           34.6737     1.6730    10.4612 C             1 RES     
    1138 C           35.4270     2.7250     9.7105 C             1 RES     
    1139 O           35.4270     2.7250     8.4500 O             1 RES     
    1140 O           36.0937     3.7288    10.4065 O             1 RES     
    1141 H           27.4550     3.1450    21.2496 H             1 RES     
    1142 H           27.1216     3.9905    22.8010 H             1 RES     
    1143 H           28.8268     3.7655    22.2603 H             1 RES     
    1144 H           27.9318     6.1166    21.9267 H             1 RES     
    1145 H           26.6901     5.4732    20.8035 H             1 RES     
    1146 H           28.7371     6.4747    19.6860 H             1 RES     
    1147 H           29.7538     5.1977    20.4349 H             1 RES     
    1148 H           28.5424     3.4288    19.1669 H             1 RES     
    1149 H           27.3373     4.6257    18.5869 H             1 RES     
    1150 H           28.8616     4.1714    16.7834 H             1 RES     
    1151 H           29.1508     5.8510    17.3471 H             1 RES     
    1152 H           31.2019     5.1355    18.5687 H             1 RES     
    1153 H           30.8208     3.4084    18.2578 H             1 RES     
    1154 H           31.0488     3.8349    15.7683 H             1 RES     
    1155 H           32.5485     4.0190    16.7259 H             1 RES     
    1156 H           32.2734     6.4936    16.7795 H             1 RES     
    1157 H           30.7883     6.4021    15.7914 H             1 RES     
    1158 H           33.6594     6.1665    14.8821 H             1 RES     
    1159 H           32.8966     5.6768    12.7081 H             1 RES     
    1160 H           30.1021     5.1104    14.0378 H             1 RES     
    1161 H           30.3303     6.1731    12.6221 H             1 RES     
    1162 H           31.3522     4.2292    11.3574 H             1 RES     
    1163 H           29.6370     4.0094    11.8145 H             1 RES     
    1164 H           31.9429     2.8633    13.5285 H             1 RES     
    1165 H           30.1882     2.5732    13.6943 H             1 RES     
    1166 H           30.5218     1.7644    11.0458 H             1 RES     
    1167 H           30.5737     0.6963    12.4707 H             1 RES     
    1168 H           32.4712     0.1987    11.0659 H             1 RES     
    1169 H           33.0574     0.8996    12.6107 H             1 RES     
    1170 H           32.7194     2.4751     9.9650 H             1 RES     
    1171 H           33.4321     3.1001    11.5068 H             1 RES     
    1172 H           35.2556     1.3894    11.3649 H             1 RES     
    1173 H           34.5603     0.7692     9.8227 H             1 RES     
    1174 H           36.5885     4.4628     9.9140 H             1 RES     
    1175 C           19.6144     1.2426    21.9150 C             1 RES     
    1176 C           19.5439     2.5867    21.1899 C             1 RES     
    1177 C           20.5620     2.6971    20.0445 C             1 RES     
    1178 C           20.2285     1.7646    18.8667 C             1 RES     
    1179 C           21.0843     2.0558    17.6241 C             1 RES     
    1180 C           22.5691     1.7099    17.8370 C             1 RES     
    1181 C           23.3741     1.7439    16.5287 C             1 RES     
    1182 C           23.5779     3.1716    15.9990 C             1 RES     
    1183 C           24.4385     3.1702    14.7621 C             1 RES     
    1184 C           24.0025     2.8830    13.5207 C             1 RES     
    1185 C           22.5702     2.5665    13.1542 C             1 RES     
    1186 C           22.4939     1.3521    12.2205 C             1 RES     
    1187 C           22.8203     0.0394    12.9540 C             1 RES     
    1188 C           22.9008    -1.1616    11.9888 C             1 RES     
    1189 C           24.3425    -1.5912    11.6661 C             1 RES     
    1190 C           25.1192    -0.5293    10.8751 C             1 RES     
    1191 C           26.4977    -1.0520    10.4612 C             1 RES     
    1192 C           27.2510     0.0000     9.7105 C             1 RES     
    1193 O           27.2510     0.0000     8.4500 O             1 RES     
    1194 O           27.9177     1.0038    10.4065 O             1 RES     
    1195 H           19.2790     0.4200    21.2496 H             1 RES     
    1196 H           18.9456     1.2655    22.8010 H             1 RES     
    1197 H           20.6508     1.0405    22.2603 H             1 RES     
    1198 H           19.7558     3.3916    21.9267 H             1 RES     
    1199 H           18.5141     2.7482    20.8035 H             1 RES     
    1200 H           20.5611     3.7497    19.6860 H             1 RES     
    1201 H           21.5778     2.4727    20.4349 H             1 RES     
    1202 H           20.3664     0.7038    19.1669 H             1 RES     
    1203 H           19.1613     1.9007    18.5869 H             1 RES     
    1204 H           20.6856     1.4464    16.7834 H             1 RES     
    1205 H           20.9748     3.1260    17.3471 H             1 RES     
    1206 H           23.0259     2.4105    18.5687 H             1 RES     
    1207 H           22.6448     0.6834    18.2578 H             1 RES     
    1208 H           22.8728     1.1099    15.7683 H             1 RES     
    1209 H           24.3725     1.2940    16.7259 H             1 RES     
    1210 H           24.0974     3.7686    16.7795 H             1 RES     
    1211 H           22.6123     3.6771    15.7914 H             1 RES     
    1212 H           25.4834     3.4415    14.8821 H             1 RES     
    1213 H           24.7206     2.9518    12.7081 H             1 RES     
    1214 H           21.9261     2.3854    14.0378 H             1 RES     
    1215 H           22.1543     3.4481    12.6221 H             1 RES     
    1216 H           23.1762     1.5042    11.3574 H             1 RES     
    1217 H           21.4610     1.2844    11.8145 H             1 RES     
    1218 H           23.7669     0.1383    13.5285 H             1 RES     
    1219 H           22.0122    -0.1518    13.6943 H             1 RES     
    1220 H           22.3458    -0.9606    11.0458 H             1 RES     
    1221 H           22.3977    -2.0287    12.4707 H             1 RES     
    1222 H           24.2952    -2.5263    11.0659 H             1 RES     
    1223 H           24.8814    -1.8254    12.6107 H             1 RES     
    1224 H           24.5434    -0.2499     9.9650 H             1 RES     
    1225 H           25.2561     0.3751    11.5068 H             1 RES     
    1226 H           27.0796    -1.3356    11.3649 H             1 RES     
    1227 H           26.3843    -1.9558     9.8227 H             1 RES     
    1228 H           28.4125     1.7378     9.9140 H             1 RES     
    1229 C           14.1644    23.0436    21.9150 C             1 RES     
    1230 C           14.0939    24.3877    21.1899 C             1 RES     
    1231 C           15.1120    24.4981    20.0445 C             1 RES     
    1232 C           14.7785    23.5656    18.8667 C             1 RES     
    1233 C           15.6343    23.8568    17.6241 C             1 RES     
    1234 C           17.1191    23.5109    17.8370 C             1 RES     
    1235 C           17.9241    23.5449    16.5287 C             1 RES     
    1236 C           18.1279    24.9726    15.9990 C             1 RES     
    1237 C           18.9885    24.9712    14.7621 C             1 RES     
    1238 C           18.5525    24.6840    13.5207 C             1 RES     
    1239 C           17.1202    24.3675    13.1542 C             1 RES     
    1240 C           17.0439    23.1531    12.2205 C             1 RES     
    1241 C           17.3703    21.8404    12.9540 C             1 RES     
    1242 C           17.4508    20.6394    11.9888 C             1 RES     
    1243 C           18.8925    20.2098    11.6661 C             1 RES     
    1244 C           19.6692    21.2717    10.8751 C             1 RES     
    1245 C           21.0477    20.7490    10.4612 C             1 RES     
    1246 C           21.8010    21.8010     9.7105 C             1 RES     
    1247 O           21.8010    21.8010     8.4500 O             1 RES     
    1248 O           22.4677    22.8048    10.4065 O             1 RES     
    1249 H           13.8290    22.2210    21.2496 H             1 RES     
    1250 H           13.4956    23.0665    22.8010 H             1 RES     
    1251 H           15.2008    22.8415    22.2603 H             1 RES     
    1252 H           14.3058    25.1926    21.9267 H             1 RES     
    1253 H           13.0641    24.5492    20.8035 H             1 RES     
    1254 H           15.1111    25.5507    19.6860 H             1 RES     
    1255 H           16.1278    24.2737    20.4349 H             1 RES     
    1256 H           14.9164    22.5048    19.1669 H             1 RES     
    1257 H           13.7113    23.7017    18.5869 H             1 RES     
    1258 H           15.2356    23.2474    16.7834 H             1 RES     
    1259 H           15.5248    24.9270    17.3471 H             1 RES     
    1260 H           17.5759    24.2115    18.5687 H             1 RES     
    1261 H           17.1948    22.4844    18.2578 H             1 RES     
    1262 H           17.4228    22.9109    15.7683 H             1 RES     
    1263 H           18.9225    23.0950    16.7259 H             1 RES     
    1264 H           18.6474    25.5696    16.7795 H             1 RES     
    1265 H           17.1623    25.4781    15.7914 H             1 RES     
    1266 H           20.0334    25.2425    14.8821 H             1 RES     
    1267 H           19.2706    24.7528    12.7081 H             1 RES     
    1268 H           16.4761    24.1864    14.0378 H             1 RES     
    1269 H           16.7043    25.2491    12.6221 H             1 RES     
    1270 H           17.7262    23.3052    11.3574 H             1 RES     
    1271 H           16.0110    23.0854    11.8145 H             1 RES     
    1272 H           18.3169    21.9393    13.5285 H             1 RES     
    1273 H           16.5622    21.6492    13.6943 H             1 RES     
    1274 H           16.8958    20.8404    11.0458 H             1 RES     
    1275 H           16.9477    19.7723    12.4707 H             1 RES     
    1276 H           18.8452    19.2747    11.0659 H             1 RES     
    1277 H           19.4314    19.9756    12.6107 H             1 RES     
    1278 H           19.0934    21.5511     9.9650 H             1 RES     
    1279 H           19.8061    22.1761    11.5068 H             1 RES     
    1280 H           21.6296    20.4654    11.3649 H             1 RES     
    1281 H           20.9343    19.8452     9.8227 H             1 RES     
    1282 H           22.9625    23.5388     9.9140 H             1 RES     
    1283 C           22.3394    14.8686    21.9150 C             1 RES     
    1284 C           22.2689    16.2127    21.1899 C             1 RES     
    1285 C           23.2870    16.3231    20.0445 C             1 RES     
    1286 C           22.9535    15.3906    18.8667 C             1 RES     
    1287 C           23.8093    15.6818    17.6241 C             1 RES     
    1288 C           25.2941    15.3359    17.8370 C             1 RES     
    1289 C           26.0991    15.3699    16.5287 C             1 RES     
    1290 C           26.3029    16.7976    15.9990 C             1 RES     
    1291 C           27.1635    16.7962    14.7621 C             1 RES     
    1292 C           26.7275    16.5090    13.5207 C             1 RES     
    1293 C           25.2952    16.1925    13.1542 C             1 RES     
    1294 C           25.2189    14.9781    12.2205 C             1 RES     
    1295 C           25.5453    13.6654    12.9540 C             1 RES     
    1296 C           25.6258    12.4644    11.9888 C             1 RES     
    1297 C           27.0675    12.0348    11.6661 C             1 RES     
    1298 C           27.8442    13.0967    10.8751 C             1 RES     
    1299 C           29.2227    12.5740    10.4612 C             1 RES     
    1300 C           29.9760    13.6260     9.7105 C             1 RES     
    1301 O           29.9760    13.6260     8.4500 O             1 RES     
    1302 O           30.6427    14.6298    10.4065 O             1 RES     
    1303 H           22.0040    14.0460    21.2496 H             1 RES     
    1304 H           21.6706    14.8915    22.8010 H             1 RES     
    1305 H           23.3758    14.6665    22.2603 H             1 RES     
    1306 H           22.4808    17.0176    21.9267 H             1 RES     
    1307 H           21.2391    16.3742    20.8035 H             1 RES     
    1308 H           23.2861    17.3757    19.6860 H             1 RES     
    1309 H           24.3028    16.0987    20.4349 H             1 RES     
    1310 H           23.0914    14.3298    19.1669 H             1 RES     
    1311 H           21.8863    15.5267    18.5869 H             1 RES     
    1312 H           23.4106    15.0724    16.7834 H             1 RES     
    1313 H           23.6998    16.7520    17.3471 H             1 RES     
    1314 H           25.7509    16.0365    18.5687 H             1 RES     
    1315 H           25.3698    14.3094    18.2578 H             1 RES     
    1316 H           25.5978    14.7359    15.7683 H             1 RES     
    1317 H           27.0975    14.9200    16.7259 H             1 RES     
    1318 H           26.8224    17.3946    16.7795 H             1 RES     
    1319 H           25.3373    17.3031    15.7914 H             1 RES     
    1320 H           28.2084    17.0675    14.8821 H             1 RES     
    1321 H           27.4456    16.5778    12.7081 H             1 RES     
    1322 H           24.6511    16.0114    14.0378 H             1 RES     
    1323 H           24.8793    17.0741    12.6221 H             1 RES     
    1324 H           25.9012    15.1302    11.3574 H             1 RES     
    1325 H           24.1860    14.9104    11.8145 H             1 RES     
    1326 H           26.4919    13.7643    13.5285 H             1 RES     
    1327 H           24.7372    13.4742    13.6943 H             1 RES     
    1328 H           25.0708    12.6654    11.0458 H             1 RES     
    1329 H           25.1227    11.5973    12.4707 H             1 RES     
    1330 H           27.0202    11.0997    11.0659 H             1 RES     
    1331 H           27.6064    11.8006    12.6107 H             1 RES     
    1332 H           27.2684    13.3761     9.9650 H             1 RES     
    1333 H           27.9811    14.0011    11.5068 H             1 RES     
    1334 H           29.8046    12.2904    11.3649 H             1 RES     
    1335 H           29.1093    11.6702     9.8227 H             1 RES     
    1336 H           31.1375    15.3638     9.9140 H             1 RES     
    1337 C           -4.9116    36.6696    21.9150 C             1 RES     
    1338 C           -4.9821    38.0137    21.1899 C             1 RES     
    1339 C           -3.9640    38.1241    20.0445 C             1 RES     
    1340 C           -4.2975    37.1916    18.8667 C             1 RES     
    1341 C           -3.4417    37.4828    17.6241 C             1 RES     
    1342 C           -1.9569    37.1369    17.8370 C             1 RES     
    1343 C           -1.1519    37.1709    16.5287 C             1 RES     
    1344 C           -0.9481    38.5986    15.9990 C             1 RES     
    1345 C           -0.0875    38.5972    14.7621 C             1 RES     
    1346 C           -0.5235    38.3100    13.5207 C             1 RES     
    1347 C           -1.9558    37.9935    13.1542 C             1 RES     
    1348 C           -2.0321    36.7791    12.2205 C             1 RES     
    1349 C           -1.7057    35.4664    12.9540 C             1 RES     
    1350 C           -1.6252    34.2654    11.9888 C             1 RES     
    1351 C           -0.1835    33.8358    11.6661 C             1 RES     
    1352 C            0.5932    34.8977    10.8751 C             1 RES     
    1353 C            1.9717    34.3750    10.4612 C             1 RES     
    1354 C            2.7250    35.4270     9.7105 C             1 RES     
    1355 O            2.7250    35.4270     8.4500 O             1 RES     
    1356 O            3.3917    36.4308    10.4065 O             1 RES     
    1357 H           -5.2470    35.8470    21.2496 H             1 RES     
    1358 H           -5.5804    36.6925    22.8010 H             1 RES     
    1359 H           -3.8752    36.4675    22.2603 H             1 RES     
    1360 H           -4.7702    38.8186    21.9267 H             1 RES     
    1361 H           -6.0119    38.1752    20.8035 H             1 RES     
    1362 H           -3.9649    39.1767    19.6860 H             1 RES     
    1363 H           -2.9482    37.8997    20.4349 H             1 RES     
    1364 H           -4.1596    36.1308    19.1669 H             1 RES     
    1365 H           -5.3647    37.3277    18.5869 H             1 RES     
    1366 H           -3.8404    36.8734    16.7834 H             1 RES     
    1367 H           -3.5512    38.5530    17.3471 H             1 RES     
    1368 H           -1.5001    37.8375    18.5687 H             1 RES     
    1369 H           -1.8812    36.1104    18.2578 H             1 RES     
    1370 H           -1.6532    36.5369    15.7683 H             1 RES     
    1371 H           -0.1535    36.7210    16.7259 H             1 RES     
    1372 H           -0.4286    39.1956    16.7795 H             1 RES     
    1373 H           -1.9137    39.1041    15.7914 H             1 RES     
    1374 H            0.9574    38.8685    14.8821 H             1 RES     
    1375 H            0.1946    38.3788    12.7081 H             1 RES     
    1376 H           -2.5999    37.8124    14.0378 H             1 RES     
    1377 H           -2.3717    38.8751    12.6221 H             1 RES     
    1378 H           -1.3498    36.9312    11.3574 H             1 RES     
    1379 H           -3.0650    36.7114    11.8145 H             1 RES     
    1380 H           -0.7591    35.5653    13.5285 H             1 RES     
    1381 H           -2.5138    35.2752    13.6943 H             1 RES     
    1382 H           -2.1802    34.4664    11.0458 H             1 RES     
    1383 H           -2.1283    33.3983    12.4707 H             1 RES     
    1384 H           -0.2308    32.9007    11.0659 H             1 RES     
    1385 H            0.3554    33.6016    12.6107 H             1 RES     
    1386 H            0.0174    35.1771     9.9650 H             1 RES     
    1387 H            0.7301    35.8021    11.5068 H             1 RES     
    1388 H            2.5536    34.0914    11.3649 H             1 RES     
    1389 H            1.8583    33.4712     9.8227 H             1 RES     
    1390 H            3.8865    37.1648     9.9140 H             1 RES     
    1391 C           14.1644    28.4936    21.9150 C             1 RES     
    1392 C           14.0939    29.8377    21.1899 C             1 RES     
    1393 C           15.1120    29.9481    20.0445 C             1 RES     
    1394 C           14.7785    29.0156    18.8667 C             1 RES     
    1395 C           15.6343    29.3068    17.6241 C             1 RES     
    1396 C           17.1191    28.9609    17.8370 C             1 RES     
    1397 C           17.9241    28.9949    16.5287 C             1 RES     
    1398 C           18.1279    30.4226    15.9990 C             1 RES     
    1399 C           18.9885    30.4212    14.7621 C             1 RES     
    1400 C           18.5525    30.1340    13.5207 C             1 RES     
    1401 C           17.1202    29.8175    13.1542 C             1 RES     
    1402 C           17.0439    28.6031    12.2205 C             1 RES     
    1403 C           17.3703    27.2904    12.9540 C             1 RES     
    1404 C           17.4508    26.0894    11.9888 C             1 RES     
    1405 C           18.8925    25.6598    11.6661 C             1 RES     
    1406 C           19.6692    26.7217    10.8751 C             1 RES     
    1407 C           21.0477    26.1990    10.4612 C             1 RES     
    1408 C           21.8010    27.2510     9.7105 C             1 RES     
    1409 O           21.8010    27.2510     8.4500 O             1 RES     
    1410 O           22.4677    28.2548    10.4065 O             1 RES     
    1411 H           13.8290    27.6710    21.2496 H             1 RES     
    1412 H           13.4956    28.5165    22.8010 H             1 RES     
    1413 H           15.2008    28.2915    22.2603 H             1 RES     
    1414 H           14.3058    30.6426    21.9267 H             1 RES     
    1415 H           13.0641    29.9992    20.8035 H             1 RES     
    1416 H           15.1111    31.0007    19.6860 H             1 RES     
    1417 H           16.1278    29.7237    20.4349 H             1 RES     
    1418 H           14.9164    27.9548    19.1669 H             1 RES     
    1419 H           13.7113    29.1517    18.5869 H             1 RES     
    1420 H           15.2356    28.6974    16.7834 H             1 RES     
    1421 H           15.5248    30.3770    17.3471 H             1 RES     
    1422 H           17.5759    29.6615    18.5687 H             1 RES     
    1423 H           17.1948    27.9344    18.2578 H             1 RES     
    1424 H           17.4228    28.3609    15.7683 H             1 RES     
    1425 H           18.9225    28.5450    16.7259 H             1 RES     
    1426 H           18.6474    31.0196    16.7795 H             1 RES     
    1427 H           17.1623    30.9281    15.7914 H             1 RES     
    1428 H           20.0334    30.6925    14.8821 H             1 RES     
    1429 H           19.2706    30.2028    12.7081 H             1 RES     
    1430 H           16.4761    29.6364    14.0378 H             1 RES     
    1431 H           16.7043    30.6991    12.6221 H             1 RES     
    1432 H           17.7262    28.7552    11.3574 H             1 RES     
    1433 H           16.0110    28.5354    11.8145 H             1 RES     
    1434 H           18.3169    27.3893    13.5285 H             1 RES     
    1435 H           16.5622    27.0992    13.6943 H             1 RES     
    1436 H           16.8958    26.2904    11.0458 H             1 RES     
    1437 H           16.9477    25.2223    12.4707 H             1 RES     
    1438 H           18.8452    24.7247    11.0659 H             1 RES     
    1439 H           19.4314    25.4256    12.6107 H             1 RES     
    1440 H           19.0934    27.0011     9.9650 H             1 RES     
    1441 H           19.8061    27.6261    11.5068 H             1 RES     
    1442 H           21.6296    25.9154    11.3649 H             1 RES     
    1443 H           20.9343    25.2952     9.8227 H             1 RES     
    1444 H           22.9625    28.9888     9.9140 H             1 RES     
    1445 C            5.9894     3.9676    21.9150 C             1 RES     
    1446 C            5.9189     5.3117    21.1899 C             1 RES     
    1447 C            6.9370     5.4221    20.0445 C             1 RES     
    1448 C            6.6035     4.4896    18.8667 C             1 RES     
    1449 C            7.4593     4.7808    17.6241 C             1 RES     
    1450 C            8.9441     4.4349    17.8370 C             1 RES     
    1451 C            9.7491     4.4689    16.5287 C             1 RES     
    1452 C            9.9529     5.8966    15.9990 C             1 RES     
    1453 C           10.8135     5.8952    14.7621 C             1 RES     
    1454 C           10.3775     5.6080    13.5207 C             1 RES     
    1455 C            8.9452     5.2915    13.1542 C             1 RES     
    1456 C            8.8689     4.0771    12.2205 C             1 RES     
    1457 C            9.1953     2.7644    12.9540 C             1 RES     
    1458 C            9.2758     1.5634    11.9888 C             1 RES     
    1459 C           10.7175     1.1338    11.6661 C             1 RES     
    1460 C           11.4942     2.1957    10.8751 C             1 RES     
    1461 C           12.8727     1.6730    10.4612 C             1 RES     
    1462 C           13.6260     2.7250     9.7105 C             1 RES     
    1463 O           13.6260     2.7250     8.4500 O             1 RES     
    1464 O           14.2927     3.7288    10.4065 O             1 RES     
    1465 H            5.6540     3.1450    21.2496 H             1 RES     
    1466 H            5.3206     3.9905    22.8010 H             1 RES     
    1467 H            7.0258     3.7655    22.2603 H             1 RES     
    1468 H            6.1308     6.1166    21.9267 H             1 RES     
    1469 H            4.8891     5.4732    20.8035 H             1 RES     
    1470 H            6.9361     6.4747    19.6860 H             1 RES     
    1471 H            7.9528     5.1977    20.4349 H             1 RES     
    1472 H            6.7414     3.4288    19.1669 H             1 RES     
    1473 H            5.5363     4.6257    18.5869 H             1 RES     
    1474 H            7.0606     4.1714    16.7834 H             1 RES     
    1475 H            7.3498     5.8510    17.3471 H             1 RES     
    1476 H            9.4009     5.1355    18.5687 H             1 RES     
    1477 H            9.0198     3.4084    18.2578 H             1 RES     
    1478 H            9.2478     3.8349    15.7683 H             1 RES     
    1479 H           10.7475     4.0190    16.7259 H             1 RES     
    1480 H           10.4724     6.4936    16.7795 H             1 RES     
    1481 H            8.9873     6.4021    15.7914 H             1 RES     
    1482 H           11.8584     6.1665    14.8821 H             1 RES     
    1483 H           11.0956     5.6768    12.7081 H             1 RES     
    1484 H            8.3011     5.1104    14.0378 H             1 RES     
    1485 H            8.5293     6.1731    12.6221 H             1 RES     
    1486 H            9.5512     4.2292    11.3574 H             1 RES     
    1487 H            7.8360     4.0094    11.8145 H             1 RES     
    1488 H           10.1419     2.8633    13.5285 H             1 RES     
    1489 H            8.3872     2.5732    13.6943 H             1 RES     
    1490 H            8.7208     1.7644    11.0458 H             1 RES     
    1491 H            8.7727     0.6963    12.4707 H             1 RES     
    1492 H           10.6702     0.1987    11.0659 H             1 RES     
    1493 H           11.2564     0.8996    12.6107 H             1 RES     
    1494 H           10.9184     2.4751     9.9650 H             1 RES     
    1495 H           11.6311     3.1001    11.5068 H             1 RES     
    1496 H           13.4546     1.3894    11.3649 H             1 RES     
    1497 H           12.7593     0.7692     9.8227 H             1 RES     
    1498 H           14.7875     4.4628     9.9140 H             1 RES     
    1499 C            8.7144    33.9446    21.9150 C             1 RES     
    1500 C            8.6439    35.2887    21.1899 C             1 RES     
    1501 C            9.6620    35.3991    20.0445 C             1 RES     
    1502 C            9.3285    34.4666    18.8667 C             1 RES     
    1503 C           10.1843    34.7578    17.6241 C             1 RES     
    1504 C           11.6691    34.4119    17.8370 C             1 RES     
    1505 C           12.4741    34.4459    16.5287 C             1 RES     
    1506 C           12.6779    35.8736    15.9990 C             1 RES     
    1507 C           13.5385    35.8722    14.7621 C             1 RES     
    1508 C           13.1025    35.5850    13.5207 C             1 RES     
    1509 C           11.6702    35.2685    13.1542 C             1 RES     
    1510 C           11.5939    34.0541    12.2205 C             1 RES     
    1511 C           11.9203    32.7414    12.9540 C             1 RES     
    1512 C           12.0008    31.5404    11.9888 C             1 RES     
    1513 C           13.4425    31.1108    11.6661 C             1 RES     
    1514 C           14.2192    32.1727    10.8751 C             1 RES     
    1515 C           15.5977    31.6500    10.4612 C             1 RES     
    1516 C           16.3510    32.7020     9.7105 C             1 RES     
    1517 O           16.3510    32.7020     8.4500 O             1 RES     
    1518 O           17.0177    33.7058    10.4065 O             1 RES     
    1519 H            8.3790    33.1220    21.2496 H             1 RES     
    1520 H            8.0456    33.9675    22.8010 H             1 RES     
    1521 H            9.7508    33.7425    22.2603 H             1 RES     
    1522 H            8.8558    36.0936    21.9267 H             1 RES     
    1523 H            7.6141    35.4502    20.8035 H             1 RES     
    1524 H            9.6611    36.4517    19.6860 H             1 RES     
    1525 H           10.6778    35.1747    20.4349 H             1 RES     
    1526 H            9.4664    33.4058    19.1669 H             1 RES     
    1527 H            8.2613    34.6027    18.5869 H             1 RES     
    1528 H            9.7856    34.1484    16.7834 H             1 RES     
    1529 H           10.0748    35.8280    17.3471 H             1 RES     
    1530 H           12.1259    35.1125    18.5687 H             1 RES     
    1531 H           11.7448    33.3854    18.2578 H             1 RES     
    1532 H           11.9728    33.8119    15.7683 H             1 RES     
    1533 H           13.4725    33.9960    16.7259 H             1 RES     
    1534 H           13.1974    36.4706    16.7795 H             1 RES     
    1535 H           11.7123    36.3791    15.7914 H             1 RES     
    1536 H           14.5834    36.1435    14.8821 H             1 RES     
    1537 H           13.8206    35.6538    12.7081 H             1 RES     
    1538 H           11.0261    35.0874    14.0378 H             1 RES     
    1539 H           11.2543    36.1501    12.6221 H             1 RES     
    1540 H           12.2762    34.2062    11.3574 H             1 RES     
    1541 H           10.5610    33.9864    11.8145 H             1 RES     
    1542 H           12.8669    32.8403    13.5285 H             1 RES     
    1543 H           11.1122    32.5502    13.6943 H             1 RES     
    1544 H           11.4458    31.7414    11.0458 H             1 RES     
    1545 H           11.4977    30.6733    12.4707 H             1 RES     
    1546 H           13.3952    30.1757    11.0659 H             1 RES     
    1547 H           13.9814    30.8766    12.6107 H             1 RES     
    1548 H           13.6434    32.4521     9.9650 H             1 RES     
    1549 H           14.3561    33.0771    11.5068 H             1 RES     
    1550 H           16.1796    31.3664    11.3649 H             1 RES     
    1551 H           15.4843    30.7462     9.8227 H             1 RES     
    1552 H           17.5125    34.4398     9.9140 H             1 RES     
    1553 C           11.4394    14.8686    21.9150 C             1 RES     
    1554 C           11.3689    16.2127    21.1899 C             1 RES     
    1555 C           12.3870    16.3231    20.0445 C             1 RES     
    1556 C           12.0535    15.3906    18.8667 C             1 RES     
    1557 C           12.9093    15.6818    17.6241 C             1 RES     
    1558 C           14.3941    15.3359    17.8370 C             1 RES     
    1559 C           15.1991    15.3699    16.5287 C             1 RES     
    1560 C           15.4029    16.7976    15.9990 C             1 RES     
    1561 C           16.2635    16.7962    14.7621 C             1 RES     
    1562 C           15.8275    16.5090    13.5207 C             1 RES     
    1563 C           14.3952    16.1925    13.1542 C             1 RES     
    1564 C           14.3189    14.9781    12.2205 C             1 RES     
    1565 C           14.6453    13.6654    12.9540 C             1 RES     
    1566 C           14.7258    12.4644    11.9888 C             1 RES     
    1567 C           16.1675    12.0348    11.6661 C             1 RES     
    1568 C           16.9442    13.0967    10.8751 C             1 RES     
    1569 C           18.3227    12.5740    10.4612 C             1 RES     
    1570 C           19.0760    13.6260     9.7105 C             1 RES     
    1571 O           19.0760    13.6260     8.4500 O             1 RES     
    1572 O           19.7427    14.6298    10.4065 O             1 RES     
    1573 H           11.1040    14.0460    21.2496 H             1 RES     
    1574 H           10.7706    14.8915    22.8010 H             1 RES     
    1575 H           12.4758    14.6665    22.2603 H             1 RES     
    1576 H           11.5808    17.0176    21.9267 H             1 RES     
    1577 H           10.3391    16.3742    20.8035 H             1 RES     
    1578 H           12.3861    17.3757    19.6860 H             1 RES     
    1579 H           13.4028    16.0987    20.4349 H             1 RES     
    1580 H           12.1914    14.3298    19.1669 H             1 RES     
    1581 H           10.9863    15.5267    18.5869 H             1 RES     
    1582 H           12.5106    15.0724    16.7834 H             1 RES     
    1583 H           12.7998    16.7520    17.3471 H             1 RES     
    1584 H           14.8509    16.0365    18.5687 H             1 RES     
    1585 H           14.4698    14.3094    18.2578 H             1 RES     
    1586 H           14.6978    14.7359    15.7683 H             1 RES     
    1587 H           16.1975    14.9200    16.7259 H             1 RES     
    1588 H           15.9224    17.3946    16.7795 H             1 RES     
    1589 H           14.4373    17.3031    15.7914 H             1 RES     
    1590 H           17.3084    17.0675    14.8821 H             1 RES     
    1591 H           16.5456    16.5778    12.7081 H             1 RES     
    1592 H           13.7511    16.0114    14.0378 H             1 RES     
    1593 H           13.9793    17.0741    12.6221 H             1 RES     
    1594 H           15.0012    15.1302    11.3574 H             1 RES     
    1595 H           13.2860    14.9104    11.8145 H             1 RES     
    1596 H           15.5919    13.7643    13.5285 H             1 RES     
    1597 H           13.8372    13.4742    13.6943 H             1 RES     
    1598 H           14.1708    12.6654    11.0458 H             1 RES     
    1599 H           14.2227    11.5973    12.4707 H             1 RES     
    1600 H           16.1202    11.0997    11.0659 H             1 RES     
    1601 H           16.7064    11.8006    12.6107 H             1 RES     
    1602 H           16.3684    13.3761     9.9650 H             1 RES     
    1603 H           17.0811    14.0011    11.5068 H             1 RES     
    1604 H           18.9046    12.2904    11.3649 H             1 RES     
    1605 H           18.2093    11.6702     9.8227 H             1 RES     
    1606 H           20.2375    15.3638     9.9140 H             1 RES     
    1607 C            3.2644    28.4936    21.9150 C             1 RES     
    1608 C            3.1939    29.8377    21.1899 C             1 RES     
    1609 C            4.2120    29.9481    20.0445 C             1 RES     
    1610 C            3.8785    29.0156    18.8667 C             1 RES     
    1611 C            4.7343    29.3068    17.6241 C             1 RES     
    1612 C            6.2191    28.9609    17.8370 C             1 RES     
    1613 C            7.0241    28.9949    16.5287 C             1 RES     
    1614 C            7.2279    30.4226    15.9990 C             1 RES     
    1615 C            8.0885    30.4212    14.7621 C             1 RES     
    1616 C            7.6525    30.1340    13.5207 C             1 RES     
    1617 C            6.2202    29.8175    13.1542 C             1 RES     
    1618 C            6.1439    28.6031    12.2205 C             1 RES     
    1619 C            6.4703    27.2904    12.9540 C             1 RES     
    1620 C            6.5508    26.0894    11.9888 C             1 RES     
    1621 C            7.9925    25.6598    11.6661 C             1 RES     
    1622 C            8.7692    26.7217    10.8751 C             1 RES     
    1623 C           10.1477    26.1990    10.4612 C             1 RES     
    1624 C           10.9010    27.2510     9.7105 C             1 RES     
    1625 O           10.9010    27.2510     8.4500 O             1 RES     
    1626 O           11.5677    28.2548    10.4065 O             1 RES     
    1627 H            2.9290    27.6710    21.2496 H             1 RES     
    1628 H            2.5956    28.5165    22.8010 H             1 RES     
    1629 H            4.3008    28.2915    22.2603 H             1 RES     
    1630 H            3.4058    30.6426    21.9267 H             1 RES     
    1631 H            2.1641    29.9992    20.8035 H             1 RES     
    1632 H            4.2111    31.0007    19.6860 H             1 RES     
    1633 H            5.2278    29.7237    20.4349 H             1 RES     
    1634 H            4.0164    27.9548    19.1669 H             1 RES     
    1635 H            2.8113    29.1517    18.5869 H             1 RES     
    1636 H            4.3356    28.6974    16.7834 H             1 RES     
    1637 H            4.6248    30.3770    17.3471 H             1 RES     
    1638 H            6.6759    29.6615    18.5687 H             1 RES     
    1639 H            6.2948    27.9344    18.2578 H             1 RES     
    1640 H            6.5228    28.3609    15.7683 H             1 RES     
    1641 H            8.0225    28.5450    16.7259 H             1 RES     
    1642 H            7.7474    31.0196    16.7795 H             1 RES     
    1643 H            6.2623    30.9281    15.7914 H             1 RES     
    1644 H            9.1334    30.6925    14.8821 H             1 RES     
    1645 H            8.3706    30.2028    12.7081 H             1 RES     
    1646 H            5.5761    29.6364    14.0378 H             1 RES     
    1647 H            5.8043    30.6991    12.6221 H             1 RES     
    1648 H            6.8262    28.7552    11.3574 H             1 RES     
    1649 H            5.1110    28.5354    11.8145 H             1 RES     
    1650 H            7.4169    27.3893    13.5285 H             1 RES     
    1651 H            5.6622    27.0992    13.6943 H             1 RES     
    1652 H            5.9958    26.2904    11.0458 H             1 RES     
    1653 H            6.0477    25.2223    12.4707 H             1 RES     
    1654 H            7.9452    24.7247    11.0659 H             1 RES     
    1655 H            8.5314    25.4256    12.6107 H             1 RES     
    1656 H            8.1934    27.0011     9.9650 H             1 RES     
    1657 H            8.9061    27.6261    11.5068 H             1 RES     
    1658 H           10.7296    25.9154    11.3649 H             1 RES     
    1659 H           10.0343    25.2952     9.8227 H             1 RES     
    1660 H           12.0625    28.9888     9.9140 H             1 RES     
    1661 C            0.5384     9.4176    21.9150 C             1 RES     
    1662 C            0.4679    10.7617    21.1899 C             1 RES     
    1663 C            1.4860    10.8721    20.0445 C             1 RES     
    1664 C            1.1525     9.9396    18.8667 C             1 RES     
    1665 C            2.0083    10.2308    17.6241 C             1 RES     
    1666 C            3.4931     9.8849    17.8370 C             1 RES     
    1667 C            4.2981     9.9189    16.5287 C             1 RES     
    1668 C            4.5019    11.3466    15.9990 C             1 RES     
    1669 C            5.3625    11.3452    14.7621 C             1 RES     
    1670 C            4.9265    11.0580    13.5207 C             1 RES     
    1671 C            3.4942    10.7415    13.1542 C             1 RES     
    1672 C            3.4179     9.5271    12.2205 C             1 RES     
    1673 C            3.7443     8.2144    12.9540 C             1 RES     
    1674 C            3.8248     7.0134    11.9888 C             1 RES     
    1675 C            5.2665     6.5838    11.6661 C             1 RES     
    1676 C            6.0432     7.6457    10.8751 C             1 RES     
    1677 C            7.4217     7.1230    10.4612 C             1 RES     
    1678 C            8.1750     8.1750     9.7105 C             1 RES     
    1679 O            8.1750     8.1750     8.4500 O             1 RES     
    1680 O            8.8417     9.1788    10.4065 O             1 RES     
    1681 H            0.2030     8.5950    21.2496 H             1 RES     
    1682 H           -0.1304     9.4405    22.8010 H             1 RES     
    1683 H            1.5748     9.2155    22.2603 H             1 RES     
    1684 H            0.6798    11.5666    21.9267 H             1 RES     
    1685 H           -0.5619    10.9232    20.8035 H             1 RES     
    1686 H            1.4851    11.9247    19.6860 H             1 RES     
    1687 H            2.5018    10.6477    20.4349 H             1 RES     
    1688 H            1.2904     8.8788    19.1669 H             1 RES     
    1689 H            0.0853    10.0757    18.5869 H             1 RES     
    1690 H            1.6096     9.6214    16.7834 H             1 RES     
    1691 H            1.8988    11.3010    17.3471 H             1 RES     
    1692 H            3.9499    10.5855    18.5687 H             1 RES     
    1693 H            3.5688     8.8584    18.2578 H             1 RES     
    1694 H            3.7968     9.2849    15.7683 H             1 RES     
    1695 H            5.2965     9.4690    16.7259 H             1 RES     
    1696 H            5.0214    11.9436    16.7795 H             1 RES     
    1697 H            3.5363    11.8521    15.7914 H             1 RES     
    1698 H            6.4074    11.6165    14.8821 H             1 RES     
    1699 H            5.6446    11.1268    12.7081 H             1 RES     
    1700 H            2.8501    10.5604    14.0378 H             1 RES     
    1701 H            3.0783    11.6231    12.6221 H             1 RES     
    1702 H            4.1002     9.6792    11.3574 H             1 RES     
    1703 H            2.3850     9.4594    11.8145 H             1 RES     
    1704 H            4.6909     8.3133    13.5285 H             1 RES     
    1705 H            2.9362     8.0232    13.6943 H             1 RES     
    1706 H            3.2698     7.2144    11.0458 H             1 RES     
    1707 H            3.3217     6.1463    12.4707 H             1 RES     
    1708 H            5.2192     5.6487    11.0659 H             1 RES     
    1709 H            5.8054     6.3496    12.6107 H             1 RES     
    1710 H            5.4674     7.9251     9.9650 H             1 RES     
    1711 H            6.1801     8.5501    11.5068 H             1 RES     
    1712 H            8.0036     6.8394    11.3649 H             1 RES     
    1713 H            7.3083     6.2192     9.8227 H             1 RES     
    1714 H            9.3365     9.9128     9.9140 H             1 RES     
    1715 C           19.6144    17.5936    21.9150 C             1 RES     
    1716 C           19.5439    18.9377    21.1899 C             1 RES     
    1717 C           20.5620    19.0481    20.0445 C             1 RES     
    1718 C           20.2285    18.1156    18.8667 C             1 RES     
    1719 C           21.0843    18.4068    17.6241 C             1 RES     
    1720 C           22.5691    18.0609    17.8370 C             1 RES     
    1721 C           23.3741    18.0949    16.5287 C             1 RES     
    1722 C           23.5779    19.5226    15.9990 C             1 RES     
    1723 C           24.4385    19.5212    14.7621 C             1 RES     
    1724 C           24.0025    19.2340    13.5207 C             1 RES     
    1725 C           22.5702    18.9175    13.1542 C             1 RES     
    1726 C           22.4939    17.7031    12.2205 C             1 RES     
    1727 C           22.8203    16.3904    12.9540 C             1 RES     
    1728 C           22.9008    15.1894    11.9888 C             1 RES     
    1729 C           24.3425    14.7598    11.6661 C             1 RES     
    1730 C           25.1192    15.8217    10.8751 C             1 RES     
    1731 C           26.4977    15.2990    10.4612 C             1 RES     
    1732 C           27.2510    16.3510     9.7105 C             1 RES     
    1733 O           27.2510    16.3510     8.4500 O             1 RES     
    1734 O           27.9177    17.3548    10.4065 O             1 RES     
    1735 H           19.2790    16.7710    21.2496 H             1 RES     
    1736 H           18.9456    17.6165    22.8010 H             1 RES     
    1737 H           20.6508    17.3915    22.2603 H             1 RES     
    1738 H           19.7558    19.7426    21.9267 H             1 RES     
    1739 H           18.5141    19.0992    20.8035 H             1 RES     
    1740 H           20.5611    20.1007    19.6860 H             1 RES     
    1741 H           21.5778    18.8237    20.4349 H             1 RES     
    1742 H           20.3664    17.0548    19.1669 H             1 RES     
    1743 H           19.1613    18.2517    18.5869 H             1 RES     
    1744 H           20.6856    17.7974    16.7834 H             1 RES     
    1745 H           20.9748    19.4770    17.3471 H             1 RES     
    1746 H           23.0259    18.7615    18.5687 H             1 RES     
    1747 H           22.6448    17.0344    18.2578 H             1 RES     
    1748 H           22.8728    17.4609    15.7683 H             1 RES     
    1749 H           24.3725    17.6450    16.7259 H             1 RES     
    1750 H           24.0974    20.1196    16.7795 H             1 RES     
    1751 H           22.6123    20.0281    15.7914 H             1 RES     
    1752 H           25.4834    19.7925    14.8821 H             1 RES     
    1753 H           24.7206    19.3028    12.7081 H             1 RES     
    1754 H           21.9261    18.7364    14.0378 H             1 RES     
    1755 H           22.1543    19.7991    12.6221 H             1 RES     
    1756 H           23.1762    17.8552    11.3574 H             1 RES     
    1757 H           21.4610    17.6354    11.8145 H             1 RES     
    1758 H           23.7669    16.4893    13.5285 H             1 RES     
    1759 H           22.0122    16.1992    13.6943 H             1 RES     
    1760 H           22.3458    15.3904    11.0458 H             1 RES     
    1761 H           22.3977    14.3223    12.4707 H             1 RES     
    1762 H           24.2952    13.8247    11.0659 H             1 RES     
    1763 H           24.8814    14.5256    12.6107 H             1 RES     
    1764 H           24.5434    16.1011     9.9650 H             1 RES     
    1765 H           25.2561    16.7261    11.5068 H             1 RES     
    1766 H           27.0796    15.0154    11.3649 H             1 RES     
    1767 H           26.3843    14.3952     9.8227 H             1 RES     
    1768 H           28.4125    18.0888     9.9140 H             1 RES     
    1769 C            0.5384    31.2186    21.9150 C             1 RES     
    1770 C            0.4679    32.5627    21.1899 C             1 RES     
    1771 C            1.4860    32.6731    20.0445 C             1 RES     
    1772 C            1.1525    31.7406    18.8667 C             1 RES     
    1773 C            2.0083    32.0318    17.6241 C             1 RES     
    1774 C            3.4931    31.6859    17.8370 C             1 RES     
    1775 C            4.2981    31.7199    16.5287 C             1 RES     
    1776 C            4.5019    33.1476    15.9990 C             1 RES     
    1777 C            5.3625    33.1462    14.7621 C             1 RES     
    1778 C            4.9265    32.8590    13.5207 C             1 RES     
    1779 C            3.4942    32.5425    13.1542 C             1 RES     
    1780 C            3.4179    31.3281    12.2205 C             1 RES     
    1781 C            3.7443    30.0154    12.9540 C             1 RES     
    1782 C            3.8248    28.8144    11.9888 C             1 RES     
    1783 C            5.2665    28.3848    11.6661 C             1 RES     
    1784 C            6.0432    29.4467    10.8751 C             1 RES     
    1785 C            7.4217    28.9240    10.4612 C             1 RES     
    1786 C            8.1750    29.9760     9.7105 C             1 RES     
    1787 O            8.1750    29.9760     8.4500 O             1 RES     
    1788 O            8.8417    30.9798    10.4065 O             1 RES     
    1789 H            0.2030    30.3960    21.2496 H             1 RES     
    1790 H           -0.1304    31.2415    22.8010 H             1 RES     
    1791 H            1.5748    31.0165    22.2603 H             1 RES     
    1792 H            0.6798    33.3676    21.9267 H             1 RES     
    1793 H           -0.5619    32.7242    20.8035 H             1 RES     
    1794 H            1.4851    33.7257    19.6860 H             1 RES     
    1795 H            2.5018    32.4487    20.4349 H             1 RES     
    1796 H            1.2904    30.6798    19.1669 H             1 RES     
    1797 H            0.0853    31.8767    18.5869 H             1 RES     
    1798 H            1.6096    31.4224    16.7834 H             1 RES     
    1799 H            1.8988    33.1020    17.3471 H             1 RES     
    1800 H            3.9499    32.3865    18.5687 H             1 RES     
    1801 H            3.5688    30.6594    18.2578 H             1 RES     
    1802 H            3.7968    31.0859    15.7683 H             1 RES     
    1803 H            5.2965    31.2700    16.7259 H             1 RES     
    1804 H            5.0214    33.7446    16.7795 H             1 RES     
    1805 H            3.5363    33.6531    15.7914 H             1 RES     
    1806 H            6.4074    33.4175    14.8821 H             1 RES     
    1807 H            5.6446    32.9278    12.7081 H             1 RES     
    1808 H            2.8501    32.3614    14.0378 H             1 RES     
    1809 H            3.0783    33.4241    12.6221 H             1 RES     
    1810 H            4.1002    31.4802    11.3574 H             1 RES     
    1811 H            2.3850    31.2604    11.8145 H             1 RES     
    1812 H            4.6909    30.1143    13.5285 H             1 RES     
    1813 H            2.9362    29.8242    13.6943 H             1 RES     
    1814 H            3.2698    29.0154    11.0458 H             1 RES     
    1815 H            3.3217    27.9473    12.4707 H             1 RES     
    1816 H            5.2192    27.4497    11.0659 H             1 RES     
    1817 H            5.8054    28.1506    12.6107 H             1 RES     
    1818 H            5.4674    29.7261     9.9650 H             1 RES     
    1819 H            6.1801    30.3511    11.5068 H             1 RES     
    1820 H            8.0036    28.6404    11.3649 H             1 RES     
    1821 H            7.3083    28.0202     9.8227 H             1 RES     
    1822 H            9.3365    31.7138     9.9140 H             1 RES     
    1823 C           -7.6366     6.6926    21.9150 C             1 RES     
    1824 C           -7.7071     8.0367    21.1899 C             1 RES     
    1825 C           -6.6890     8.1471    20.0445 C             1 RES     
    1826 C           -7.0225     7.2146    18.8667 C             1 RES     
    1827 C           -6.1667     7.5058    17.6241 C             1 RES     
    1828 C           -4.6819     7.1599    17.8370 C             1 RES     
    1829 C           -3.8769     7.1939    16.5287 C             1 RES     
    1830 C           -3.6731     8.6216    15.9990 C             1 RES     
    1831 C           -2.8125     8.6202    14.7621 C             1 RES     
    1832 C           -3.2485     8.3330    13.5207 C             1 RES     
    1833 C           -4.6808     8.0165    13.1542 C             1 RES     
    1834 C           -4.7571     6.8021    12.2205 C             1 RES     
    1835 C           -4.4307     5.4894    12.9540 C             1 RES     
    1836 C           -4.3502     4.2884    11.9888 C             1 RES     
    1837 C           -2.9085     3.8588    11.6661 C             1 RES     
    1838 C           -2.1318     4.9207    10.8751 C             1 RES     
    1839 C           -0.7533     4.3980    10.4612 C             1 RES     
    1840 C            0.0000     5.4500     9.7105 C             1 RES     
    1841 O            0.0000     5.4500     8.4500 O             1 RES     
    1842 O            0.6667     6.4538    10.4065 O             1 RES     
    1843 H           -7.9720     5.8700    21.2496 H             1 RES     
    1844 H           -8.3054     6.7155    22.8010 H             1 RES     
    1845 H           -6.6002     6.4905    22.2603 H             1 RES     
    1846 H           -7.4952     8.8416    21.9267 H             1 RES     
    1847 H           -8.7369     8.1982    20.8035 H             1 RES     
    1848 H           -6.6899     9.1997    19.6860 H             1 RES     
    1849 H           -5.6732     7.9227    20.4349 H             1 RES     
    1850 H           -6.8846     6.1538    19.1669 H             1 RES     
    1851 H           -8.0897     7.3507    18.5869 H             1 RES     
    1852 H           -6.5654     6.8964    16.7834 H             1 RES     
    1853 H           -6.2762     8.5760    17.3471 H             1 RES     
    1854 H           -4.2251     7.8605    18.5687 H             1 RES     
    1855 H           -4.6062     6.1334    18.2578 H             1 RES     
    1856 H           -4.3782     6.5599    15.7683 H             1 RES     
    1857 H           -2.8785     6.7440    16.7259 H             1 RES     
    1858 H           -3.1536     9.2186    16.7795 H             1 RES     
    1859 H           -4.6387     9.1271    15.7914 H             1 RES     
    1860 H           -1.7676     8.8915    14.8821 H             1 RES     
    1861 H           -2.5304     8.4018    12.7081 H             1 RES     
    1862 H           -5.3249     7.8354    14.0378 H             1 RES     
    1863 H           -5.0967     8.8981    12.6221 H             1 RES     
    1864 H           -4.0748     6.9542    11.3574 H             1 RES     
    1865 H           -5.7900     6.7344    11.8145 H             1 RES     
    1866 H           -3.4841     5.5883    13.5285 H             1 RES     
    1867 H           -5.2388     5.2982    13.6943 H             1 RES     
    1868 H           -4.9052     4.4894    11.0458 H             1 RES     
    1869 H           -4.8533     3.4213    12.4707 H             1 RES     
    1870 H           -2.9558     2.9237    11.0659 H             1 RES     
    1871 H           -2.3696     3.6246    12.6107 H             1 RES     
    1872 H           -2.7076     5.2001     9.9650 H             1 RES     
    1873 H           -1.9949     5.8251    11.5068 H             1 RES     
    1874 H           -0.1714     4.1144    11.3649 H             1 RES     
    1875 H           -0.8667     3.4942     9.8227 H             1 RES     
    1876 H            1.1615     7.1878     9.9140 H             1 RES     
    1877 C            3.2644    39.3946    21.9150 C             1 RES     
    1878 C            3.1939    40.7387    21.1899 C             1 RES     
    1879 C            4.2120    40.8491    20.0445 C             1 RES     
    1880 C            3.8785    39.9166    18.8667 C             1 RES     
    1881 C            4.7343    40.2078    17.6241 C             1 RES     
    1882 C            6.2191    39.8619    17.8370 C             1 RES     
    1883 C            7.0241    39.8959    16.5287 C             1 RES     
    1884 C            7.2279    41.3236    15.9990 C             1 RES     
    1885 C            8.0885    41.3222    14.7621 C             1 RES     
    1886 C            7.6525    41.0350    13.5207 C             1 RES     
    1887 C            6.2202    40.7185    13.1542 C             1 RES     
    1888 C            6.1439    39.5041    12.2205 C             1 RES     
    1889 C            6.4703    38.1914    12.9540 C             1 RES     
    1890 C            6.5508    36.9904    11.9888 C             1 RES     
    1891 C            7.9925    36.5608    11.6661 C             1 RES     
    1892 C            8.7692    37.6227    10.8751 C             1 RES     
    1893 C           10.1477    37.1000    10.4612 C             1 RES     
    1894 C           10.9010    38.1520     9.7105 C             1 RES     
    1895 O           10.9010    38.1520     8.4500 O             1 RES     
    1896 O           11.5677    39.1558    10.4065 O             1 RES     
    1897 H            2.9290    38.5720    21.2496 H             1 RES     
    1898 H            2.5956    39.4175    22.8010 H             1 RES     
    1899 H            4.3008    39.1925    22.2603 H             1 RES     
    1900 H            3.4058    41.5436    21.9267 H             1 RES     
    1901 H            2.1641    40.9002    20.8035 H             1 RES     
    1902 H            4.2111    41.9017    19.6860 H             1 RES     
    1903 H            5.2278    40.6247    20.4349 H             1 RES     
    1904 H            4.0164    38.8558    19.1669 H             1 RES     
    1905 H            2.8113    40.0527    18.5869 H             1 RES     
    1906 H            4.3356    39.5984    16.7834 H             1 RES     
    1907 H            4.6248    41.2780    17.3471 H             1 RES     
    1908 H            6.6759    40.5625    18.5687 H             1 RES     
    1909 H            6.2948    38.8354    18.2578 H             1 RES     
    1910 H            6.5228    39.2619    15.7683 H             1 RES     
    1911 H            8.0225    39.4460    16.7259 H             1 RES     
    1912 H            7.7474    41.9206    16.7795 H             1 RES     
    1913 H            6.2623    41.8291    15.7914 H             1 RES     
    1914 H            9.1334    41.5935    14.8821 H             1 RES     
    1915 H            8.3706    41.1038    12.7081 H             1 RES     
    1916 H            5.5761    40.5374    14.0378 H             1 RES     
    1917 H            5.8043    41.6001    12.6221 H             1 RES     
    1918 H            6.8262    39.6562    11.3574 H             1 RES     
    1919 H            5.1110    39.4364    11.8145 H             1 RES     
    1920 H            7.4169    38.2903    13.5285 H             1 RES     
    1921 H            5.6622    38.0002    13.6943 H             1 RES     
    1922 H            5.9958    37.1914    11.0458 H             1 RES     
    1923 H            6.0477    36.1233    12.4707 H             1 RES     
    1924 H            7.9452    35.6257    11.0659 H             1 RES     
    1925 H            8.5314    36.3266    12.6107 H             1 RES     
    1926 H            8.1934    37.9021     9.9650 H             1 RES     
    1927 H            8.9061    38.5271    11.5068 H             1 RES     
    1928 H           10.7296    36.8164    11.3649 H             1 RES     
    1929 H           10.0343    36.1962     9.8227 H             1 RES     
    1930 H           12.0625    39.8898     9.9140 H             1 RES     
    1931 C           16.8894    14.8686    21.9150 C             1 RES     
    1932 C           16.8189    16.2127    21.1899 C             1 RES     
    1933 C           17.8370    16.3231    20.0445 C             1 RES     
    1934 C           17.5035    15.3906    18.8667 C             1 RES     
    1935 C           18.3593    15.6818    17.6241 C             1 RES     
    1936 C           19.8441    15.3359    17.8370 C             1 RES     
    1937 C           20.6491    15.3699    16.5287 C             1 RES     
    1938 C           20.8529    16.7976    15.9990 C             1 RES     
    1939 C           21.7135    16.7962    14.7621 C             1 RES     
    1940 C           21.2775    16.5090    13.5207 C             1 RES     
    1941 C           19.8452    16.1925    13.1542 C             1 RES     
    1942 C           19.7689    14.9781    12.2205 C             1 RES     
    1943 C           20.0953    13.6654    12.9540 C             1 RES     
    1944 C           20.1758    12.4644    11.9888 C             1 RES     
    1945 C           21.6175    12.0348    11.6661 C             1 RES     
    1946 C           22.3942    13.0967    10.8751 C             1 RES     
    1947 C           23.7727    12.5740    10.4612 C             1 RES     
    1948 C           24.5260    13.6260     9.7105 C             1 RES     
    1949 O           24.5260    13.6260     8.4500 O             1 RES     
    1950 O           25.1927    14.6298    10.4065 O             1 RES     
    1951 H           16.5540    14.0460    21.2496 H             1 RES     
    1952 H           16.2206    14.8915    22.8010 H             1 RES     
    1953 H           17.9258    14.6665    22.2603 H             1 RES     
    1954 H           17.0308    17.0176    21.9267 H             1 RES     
    1955 H           15.7891    16.3742    20.8035 H             1 RES     
    1956 H           17.8361    17.3757    19.6860 H             1 RES     
    1957 H           18.8528    16.0987    20.4349 H             1 RES     
    1958 H           17.6414    14.3298    19.1669 H             1 RES     
    1959 H           16.4363    15.5267    18.5869 H             1 RES     
    1960 H           17.9606    15.0724    16.7834 H             1 RES     
    1961 H           18.2498    16.7520    17.3471 H             1 RES     
    1962 H           20.3009    16.0365    18.5687 H             1 RES     
    1963 H           19.9198    14.3094    18.2578 H             1 RES     
    1964 H           20.1478    14.7359    15.7683 H             1 RES     
    1965 H           21.6475    14.9200    16.7259 H             1 RES     
    1966 H           21.3724    17.3946    16.7795 H             1 RES     
    1967 H           19.8873    17.3031    15.7914 H             1 RES     
    1968 H           22.7584    17.0675    14.8821 H             1 RES     
    1969 H           21.9956    16.5778    12.7081 H             1 RES     
    1970 H           19.2011    16.0114    14.0378 H             1 RES     
    1971 H           19.4293    17.0741    12.6221 H             1 RES     
    1972 H           20.4512    15.1302    11.3574 H             1 RES     
    1973 H           18.7360    14.9104    11.8145 H             1 RES     
    1974 H           21.0419    13.7643    13.5285 H             1 RES     
    1975 H           19.2872    13.4742    13.6943 H             1 RES     
    1976 H           19.6208    12.6654    11.0458 H             1 RES     
    1977 H           19.6727    11.5973    12.4707 H             1 RES     
    1978 H           21.5702    11.0997    11.0659 H             1 RES     
    1979 H           22.1564    11.8006    12.6107 H             1 RES     
    1980 H           21.8184    13.3761     9.9650 H             1 RES     
    1981 H           22.5311    14.0011    11.5068 H             1 RES     
    1982 H           24.3546    12.2904    11.3649 H             1 RES     
    1983 H           23.6593    11.6702     9.8227 H             1 RES     
    1984 H           25.6875    15.3638     9.9140 H             1 RES     
    1985 C           19.6144    12.1436    21.9150 C             1 RES     
    1986 C           19.5439    13.4877    21.1899 C             1 RES     
    1987 C           20.5620    13.5981    20.0445 C             1 RES     
    1988 C           20.2285    12.6656    18.8667 C             1 RES     
    1989 C           21.0843    12.9568    17.6241 C             1 RES     
    1990 C           22.5691    12.6109    17.8370 C             1 RES     
    1991 C           23.3741    12.6449    16.5287 C             1 RES     
    1992 C           23.5779    14.0726    15.9990 C             1 RES     
    1993 C           24.4385    14.0712    14.7621 C             1 RES     
    1994 C           24.0025    13.7840    13.5207 C             1 RES     
    1995 C           22.5702    13.4675    13.1542 C             1 RES     
    1996 C           22.4939    12.2531    12.2205 C             1 RES     
    1997 C           22.8203    10.9404    12.9540 C             1 RES     
    1998 C           22.9008     9.7394    11.9888 C             1 RES     
    1999 C           24.3425     9.3098    11.6661 C             1 RES     
    2000 C           25.1192    10.3717    10.8751 C             1 RES     
    2001 C           26.4977     9.8490    10.4612 C             1 RES     
    2002 C           27.2510    10.9010     9.7105 C             1 RES     
    2003 O           27.2510    10.9010     8.4500 O             1 RES     
    2004 O           27.9177    11.9048    10.4065 O             1 RES     
    2005 H           19.2790    11.3210    21.2496 H             1 RES     
    2006 H           18.9456    12.1665    22.8010 H             1 RES     
    2007 H           20.6508    11.9415    22.2603 H             1 RES     
    2008 H           19.7558    14.2926    21.9267 H             1 RES     
    2009 H           18.5141    13.6492    20.8035 H             1 RES     
    2010 H           20.5611    14.6507    19.6860 H             1 RES     
    2011 H           21.5778    13.3737    20.4349 H             1 RES     
    2012 H           20.3664    11.6048    19.1669 H             1 RES     
    2013 H           19.1613    12.8017    18.5869 H             1 RES     
    2014 H           20.6856    12.3474    16.7834 H             1 RES     
    2015 H           20.9748    14.0270    17.3471 H             1 RES     
    2016 H           23.0259    13.3115    18.5687 H             1 RES     
    2017 H           22.6448    11.5844    18.2578 H             1 RES     
    2018 H           22.8728    12.0109    15.7683 H             1 RES     
    2019 H           24.3725    12.1950    16.7259 H             1 RES     
    2020 H           24.0974    14.6696    16.7795 H             1 RES     
    2021 H           22.6123    14.5781    15.7914 H             1 RES     
    2022 H           25.4834    14.3425    14.8821 H             1 RES     
    2023 H           24.7206    13.8528    12.7081 H             1 RES     
    2024 H           21.9261    13.2864    14.0378 H             1 RES     
    2025 H           22.1543    14.3491    12.6221 H             1 RES     
    2026 H           23.1762    12.4052    11.3574 H             1 RES     
    2027 H           21.4610    12.1854    11.8145 H             1 RES     
    2028 H           23.7669    11.0393    13.5285 H             1 RES     
    2029 H           22.0122    10.7492    13.6943 H             1 RES     
    2030 H           22.3458     9.9404    11.0458 H             1 RES     
    2031 H           22.3977     8.8723    12.4707 H             1 RES     
    2032 H           24.2952     8.3747    11.0659 H             1 RES     
    2033 H           24.8814     9.0756    12.6107 H             1 RES     
    2034 H           24.5434    10.6511     9.9650 H             1 RES     
    2035 H           25.2561    11.2761    11.5068 H             1 RES     
    2036 H           27.0796     9.5654    11.3649 H             1 RES     
    2037 H           26.3843     8.9452     9.8227 H             1 RES     
    2038 H           28.4125    12.6388     9.9140 H             1 RES     
    2039 C           14.1644     1.2426    21.9150 C             1 RES     
    2040 C           14.0939     2.5867    21.1899 C             1 RES     
    2041 C           15.1120     2.6971    20.0445 C             1 RES     
    2042 C           14.7785     1.7646    18.8667 C             1 RES     
    2043 C           15.6343     2.0558    17.6241 C             1 RES     
    2044 C           17.1191     1.7099    17.8370 C             1 RES     
    2045 C           17.9241     1.7439    16.5287 C             1 RES     
    2046 C           18.1279     3.1716    15.9990 C             1 RES     
    2047 C           18.9885     3.1702    14.7621 C             1 RES     
    2048 C           18.5525     2.8830    13.5207 C             1 RES     
    2049 C           17.1202     2.5665    13.1542 C             1 RES     
    2050 C           17.0439     1.3521    12.2205 C             1 RES     
    2051 C           17.3703     0.0394    12.9540 C             1 RES     
    2052 C           17.4508    -1.1616    11.9888 C             1 RES     
    2053 C           18.8925    -1.5912    11.6661 C             1 RES     
    2054 C           19.6692    -0.5293    10.8751 C             1 RES     
    2055 C           21.0477    -1.0520    10.4612 C             1 RES     
    2056 C           21.8010     0.0000     9.7105 C             1 RES     
    2057 O           21.8010     0.0000     8.4500 O             1 RES     
    2058 O           22.4677     1.0038    10.4065 O             1 RES     
    2059 H           13.8290     0.4200    21.2496 H             1 RES     
    2060 H           13.4956     1.2655    22.8010 H             1 RES     
    2061 H           15.2008     1.0405    22.2603 H             1 RES     
    2062 H           14.3058     3.3916    21.9267 H             1 RES     
    2063 H           13.0641     2.7482    20.8035 H             1 RES     
    2064 H           15.1111     3.7497    19.6860 H             1 RES     
    2065 H           16.1278     2.4727    20.4349 H             1 RES     
    2066 H           14.9164     0.7038    19.1669 H             1 RES     
    2067 H           13.7113     1.9007    18.5869 H             1 RES     
    2068 H           15.2356     1.4464    16.7834 H             1 RES     
    2069 H           15.5248     3.1260    17.3471 H             1 RES     
    2070 H           17.5759     2.4105    18.5687 H             1 RES     
    2071 H           17.1948     0.6834    18.2578 H             1 RES     
    2072 H           17.4228     1.1099    15.7683 H             1 RES     
    2073 H           18.9225     1.2940    16.7259 H             1 RES     
    2074 H           18.6474     3.7686    16.7795 H             1 RES     
    2075 H           17.1623     3.6771    15.7914 H             1 RES     
    2076 H           20.0334     3.4415    14.8821 H             1 RES     
    2077 H           19.2706     2.9518    12.7081 H             1 RES     
    2078 H           16.4761     2.3854    14.0378 H             1 RES     
    2079 H           16.7043     3.4481    12.6221 H             1 RES     
    2080 H           17.7262     1.5042    11.3574 H             1 RES     
    2081 H           16.0110     1.2844    11.8145 H             1 RES     
    2082 H           18.3169     0.1383    13.5285 H             1 RES     
    2083 H           16.5622    -0.1518    13.6943 H             1 RES     
    2084 H           16.8958    -0.9606    11.0458 H             1 RES     
    2085 H           16.9477    -2.0287    12.4707 H             1 RES     
    2086 H           18.8452    -2.5263    11.0659 H             1 RES     
    2087 H           19.4314    -1.8254    12.6107 H             1 RES     
    2088 H           19.0934    -0.2499     9.9650 H             1 RES     
    2089 H           19.8061     0.3751    11.5068 H             1 RES     
    2090 H           21.6296    -1.3356    11.3649 H             1 RES     
    2091 H           20.9343    -1.9558     9.8227 H             1 RES     
    2092 H           22.9625     1.7378     9.9140 H             1 RES     
    2093 C            5.9894    36.6696    21.9150 C             1 RES     
    2094 C            5.9189    38.0137    21.1899 C             1 RES     
    2095 C            6.9370    38.1241    20.0445 C             1 RES     
    2096 C            6.6035    37.1916    18.8667 C             1 RES     
    2097 C            7.4593    37.4828    17.6241 C             1 RES     
    2098 C            8.9441    37.1369    17.8370 C             1 RES     
    2099 C            9.7491    37.1709    16.5287 C             1 RES     
    2100 C            9.9529    38.5986    15.9990 C             1 RES     
    2101 C           10.8135    38.5972    14.7621 C             1 RES     
    2102 C           10.3775    38.3100    13.5207 C             1 RES     
    2103 C            8.9452    37.9935    13.1542 C             1 RES     
    2104 C            8.8689    36.7791    12.2205 C             1 RES     
    2105 C            9.1953    35.4664    12.9540 C             1 RES     
    2106 C            9.2758    34.2654    11.9888 C             1 RES     
    2107 C           10.7175    33.8358    11.6661 C             1 RES     
    2108 C           11.4942    34.8977    10.8751 C             1 RES     
    2109 C           12.8727    34.3750    10.4612 C             1 RES     
    2110 C           13.6260    35.4270     9.7105 C             1 RES     
    2111 O           13.6260    35.4270     8.4500 O             1 RES     
    2112 O           14.2927    36.4308    10.4065 O             1 RES     
    2113 H            5.6540    35.8470    21.2496 H             1 RES     
    2114 H            5.3206    36.6925    22.8010 H             1 RES     
    2115 H            7.0258    36.4675    22.2603 H             1 RES     
    2116 H            6.1308    38.8186    21.9267 H             1 RES     
    2117 H            4.8891    38.1752    20.8035 H             1 RES     
    2118 H            6.9361    39.1767    19.6860 H             1 RES     
    2119 H            7.9528    37.8997    20.4349 H             1 RES     
    2120 H            6.7414    36.1308    19.1669 H             1 RES     
    2121 H            5.5363    37.3277    18.5869 H             1 RES     
    2122 H            7.0606    36.8734    16.7834 H             1 RES     
    2123 H            7.3498    38.5530    17.3471 H             1 RES     
    2124 H            9.4009    37.8375    18.5687 H             1 RES     
    2125 H            9.0198    36.1104    18.2578 H             1 RES     
    2126 H            9.2478    36.5369    15.7683 H             1 RES     
    2127 H           10.7475    36.7210    16.7259 H             1 RES     
    2128 H           10.4724    39.1956    16.7795 H             1 RES     
    2129 H            8.9873    39.1041    15.7914 H             1 RES     
    2130 H           11.8584    38.8685    14.8821 H             1 RES     
    2131 H           11.0956    38.3788    12.7081 H             1 RES     
    2132 H            8.3011    37.8124    14.0378 H             1 RES     
    2133 H            8.5293    38.8751    12.6221 H             1 RES     
    2134 H            9.5512    36.9312    11.3574 H             1 RES     
    2135 H            7.8360    36.7114    11.8145 H             1 RES     
    2136 H           10.1419    35.5653    13.5285 H             1 RES     
    2137 H            8.3872    35.2752    13.6943 H             1 RES     
    2138 H            8.7208    34.4664    11.0458 H             1 RES     
    2139 H            8.7727    33.3983    12.4707 H             1 RES     
    2140 H           10.6702    32.9007    11.0659 H             1 RES     
    2141 H           11.2564    33.6016    12.6107 H             1 RES     
    2142 H           10.9184    35.1771     9.9650 H             1 RES     
    2143 H           11.6311    35.8021    11.5068 H             1 RES     
    2144 H           13.4546    34.0914    11.3649 H             1 RES     
    2145 H           12.7593    33.4712     9.8227 H             1 RES     
    2146 H           14.7875    37.1648     9.9140 H             1 RES     
    2147 C           25.0654    12.1436    21.9150 C             1 RES     
    2148 C           24.9949    13.4877    21.1899 C             1 RES     
    2149 C           26.0130    13.5981    20.0445 C             1 RES     
    2150 C           25.6795    12.6656    18.8667 C             1 RES     
    2151 C           26.5353    12.9568    17.6241 C             1 RES     
    2152 C           28.0201    12.6109    17.8370 C             1 RES     
    2153 C           28.8251    12.6449    16.5287 C             1 RES     
    2154 C           29.0289    14.0726    15.9990 C             1 RES     
    2155 C           29.8895    14.0712    14.7621 C             1 RES     
    2156 C           29.4535    13.7840    13.5207 C             1 RES     
    2157 C           28.0212    13.4675    13.1542 C             1 RES     
    2158 C           27.9449    12.2531    12.2205 C             1 RES     
    2159 C           28.2713    10.9404    12.9540 C             1 RES     
    2160 C           28.3518     9.7394    11.9888 C             1 RES     
    2161 C           29.7935     9.3098    11.6661 C             1 RES     
    2162 C           30.5702    10.3717    10.8751 C             1 RES     
    2163 C           31.9487     9.8490    10.4612 C             1 RES     
    2164 C           32.7020    10.9010     9.7105 C             1 RES     
    2165 O           32.7020    10.9010     8.4500 O             1 RES     
    2166 O           33.3687    11.9048    10.4065 O             1 RES     
    2167 H           24.7300    11.3210    21.2496 H             1 RES     
    2168 H           24.3966    12.1665    22.8010 H             1 RES     
    2169 H           26.1018    11.9415    22.2603 H             1 RES     
    2170 H           25.2068    14.2926    21.9267 H             1 RES     
    2171 H           23.9651    13.6492    20.8035 H             1 RES     
    2172 H           26.0121    14.6507    19.6860 H             1 RES     
    2173 H           27.0288    13.3737    20.4349 H             1 RES     
    2174 H           25.8174    11.6048    19.1669 H             1 RES     
    2175 H           24.6123    12.8017    18.5869 H             1 RES     
    2176 H           26.1366    12.3474    16.7834 H             1 RES     
    2177 H           26.4258    14.0270    17.3471 H             1 RES     
    2178 H           28.4769    13.3115    18.5687 H             1 RES     
    2179 H           28.0958    11.5844    18.2578 H             1 RES     
    2180 H           28.3238    12.0109    15.7683 H             1 RES     
    2181 H           29.8235    12.1950    16.7259 H             1 RES     
    2182 H           29.5484    14.6696    16.7795 H             1 RES     
    2183 H           28.0633    14.5781    15.7914 H             1 RES     
    2184 H           30.9344    14.3425    14.8821 H             1 RES     
    2185 H           30.1716    13.8528    12.7081 H             1 RES     
    2186 H           27.3771    13.2864    14.0378 H             1 RES     
    2187 H           27.6053    14.3491    12.6221 H             1 RES     
    2188 H           28.6272    12.4052    11.3574 H             1 RES     
    2189 H           26.9120    12.1854    11.8145 H             1 RES     
    2190 H           29.2179    11.0393    13.5285 H             1 RES     
    2191 H           27.4632    10.7492    13.6943 H             1 RES     
    2192 H           27.7968     9.9404    11.0458 H             1 RES     
    2193 H           27.8487     8.8723    12.4707 H             1 RES     
    2194 H           29.7462     8.3747    11.0659 H             1 RES     
    2195 H           30.3324     9.0756    12.6107 H             1 RES     
    2196 H           29.9944    10.6511     9.9650 H             1 RES     
    2197 H           30.7071    11.2761    11.5068 H             1 RES     
    2198 H           32.5306     9.5654    11.3649 H             1 RES     
    2199 H           31.8353     8.9452     9.8227 H             1 RES     
    2200 H           33.8635    12.6388     9.9140 H             1 RES     
    2201 C            3.2644    12.1436    21.9150 C             1 RES     
    2202 C            3.1939    13.4877    21.1899 C             1 RES     
    2203 C            4.2120    13.5981    20.0445 C             1 RES     
    2204 C            3.8785    12.6656    18.8667 C             1 RES     
    2205 C            4.7343    12.9568    17.6241 C             1 RES     
    2206 C            6.2191    12.6109    17.8370 C             1 RES     
    2207 C            7.0241    12.6449    16.5287 C             1 RES     
    2208 C            7.2279    14.0726    15.9990 C             1 RES     
    2209 C            8.0885    14.0712    14.7621 C             1 RES     
    2210 C            7.6525    13.7840    13.5207 C             1 RES     
    2211 C            6.2202    13.4675    13.1542 C             1 RES     
    2212 C            6.1439    12.2531    12.2205 C             1 RES     
    2213 C            6.4703    10.9404    12.9540 C             1 RES     
    2214 C            6.5508     9.7394    11.9888 C             1 RES     
    2215 C            7.9925     9.3098    11.6661 C             1 RES     
    2216 C            8.7692    10.3717    10.8751 C             1 RES     
    2217 C           10.1477     9.8490    10.4612 C             1 RES     
    2218 C           10.9010    10.9010     9.7105 C             1 RES     
    2219 O           10.9010    10.9010     8.4500 O             1 RES     
    2220 O           11.5677    11.9048    10.4065 O             1 RES     
    2221 H            2.9290    11.3210    21.2496 H             1 RES     
    2222 H            2.5956    12.1665    22.8010 H             1 RES     
    2223 H            4.3008    11.9415    22.2603 H             1 RES     
    2224 H            3.4058    14.2926    21.9267 H             1 RES     
    2225 H            2.1641    13.6492    20.8035 H             1 RES     
    2226 H            4.2111    14.6507    19.6860 H             1 RES     
    2227 H            5.2278    13.3737    20.4349 H             1 RES     
    2228 H            4.0164    11.6048    19.1669 H             1 RES     
    2229 H            2.8113    12.8017    18.5869 H             1 RES     
    2230 H            4.3356    12.3474    16.7834 H             1 RES     
    2231 H            4.6248    14.0270    17.3471 H             1 RES     
    2232 H            6.6759    13.3115    18.5687 H             1 RES     
    2233 H            6.2948    11.5844    18.2578 H             1 RES     
    2234 H            6.5228    12.0109    15.7683 H             1 RES     
    2235 H            8.0225    12.1950    16.7259 H             1 RES     
    2236 H            7.7474    14.6696    16.7795 H             1 RES     
    2237 H            6.2623    14.5781    15.7914 H             1 RES     
    2238 H            9.1334    14.3425    14.8821 H             1 RES     
    2239 H            8.3706    13.8528    12.7081 H             1 RES     
    2240 H            5.5761    13.2864    14.0378 H             1 RES     
    2241 H            5.8043    14.3491    12.6221 H             1 RES     
    2242 H            6.8262    12.4052    11.3574 H             1 RES     
    2243 H            5.1110    12.1854    11.8145 H             1 RES     
    2244 H            7.4169    11.0393    13.5285 H             1 RES     
    2245 H            5.6622    10.7492    13.6943 H             1 RES     
    2246 H            5.9958     9.9404    11.0458 H             1 RES     
    2247 H            6.0477     8.8723    12.4707 H             1 RES     
    2248 H            7.9452     8.3747    11.0659 H             1 RES     
    2249 H            8.5314     9.0756    12.6107 H             1 RES     
    2250 H            8.1934    10.6511     9.9650 H             1 RES     
    2251 H            8.9061    11.2761    11.5068 H             1 RES     
    2252 H           10.7296     9.5654    11.3649 H             1 RES     
    2253 H           10.0343     8.9452     9.8227 H             1 RES     
    2254 H           12.0625    12.6388     9.9140 H             1 RES     
    2255 C           -4.9116    25.7686    21.9150 C             1 RES     
    2256 C           -4.9821    27.1127    21.1899 C             1 RES     
    2257 C           -3.9640    27.2231    20.0445 C             1 RES     
    2258 C           -4.2975    26.2906    18.8667 C             1 RES     
    2259 C           -3.4417    26.5818    17.6241 C             1 RES     
    2260 C           -1.9569    26.2359    17.8370 C             1 RES     
    2261 C           -1.1519    26.2699    16.5287 C             1 RES     
    2262 C           -0.9481    27.6976    15.9990 C             1 RES     
    2263 C           -0.0875    27.6962    14.7621 C             1 RES     
    2264 C           -0.5235    27.4090    13.5207 C             1 RES     
    2265 C           -1.9558    27.0925    13.1542 C             1 RES     
    2266 C           -2.0321    25.8781    12.2205 C             1 RES     
    2267 C           -1.7057    24.5654    12.9540 C             1 RES     
    2268 C           -1.6252    23.3644    11.9888 C             1 RES     
    2269 C           -0.1835    22.9348    11.6661 C             1 RES     
    2270 C            0.5932    23.9967    10.8751 C             1 RES     
    2271 C            1.9717    23.4740    10.4612 C             1 RES     
    2272 C            2.7250    24.5260     9.7105 C             1 RES     
    2273 O            2.7250    24.5260     8.4500 O             1 RES     
    2274 O            3.3917    25.5298    10.4065 O             1 RES     
    2275 H           -5.2470    24.9460    21.2496 H             1 RES     
    2276 H           -5.5804    25.7915    22.8010 H             1 RES     
    2277 H           -3.8752    25.5665    22.2603 H             1 RES     
    2278 H           -4.7702    27.9176    21.9267 H             1 RES     
    2279 H           -6.0119    27.2742    20.8035 H             1 RES     
    2280 H           -3.9649    28.2757    19.6860 H             1 RES     
    2281 H           -2.9482    26.9987    20.4349 H             1 RES     
    2282 H           -4.1596    25.2298    19.1669 H             1 RES     
    2283 H           -5.3647    26.4267    18.5869 H             1 RES     
    2284 H           -3.8404    25.9724    16.7834 H             1 RES     
    2285 H           -3.5512    27.6520    17.3471 H             1 RES     
    2286 H           -1.5001    26.9365    18.5687 H             1 RES     
    2287 H           -1.8812    25.2094    18.2578 H             1 RES     
    2288 H           -1.6532    25.6359    15.7683 H             1 RES     
    2289 H           -0.1535    25.8200    16.7259 H             1 RES     
    2290 H           -0.4286    28.2946    16.7795 H             1 RES     
    2291 H           -1.9137    28.2031    15.7914 H             1 RES     
    2292 H            0.9574    27.9675    14.8821 H             1 RES     
    2293 H            0.1946    27.4778    12.7081 H             1 RES     
    2294 H           -2.5999    26.9114    14.0378 H             1 RES     
    2295 H           -2.3717    27.9741    12.6221 H             1 RES     
    2296 H           -1.3498    26.0302    11.3574 H             1 RES     
    2297 H           -3.0650    25.8104    11.8145 H             1 RES     
    2298 H           -0.7591    24.6643    13.5285 H             1 RES     
    2299 H           -2.5138    24.3742    13.6943 H             1 RES     
    2300 H           -2.1802    23.5654    11.0458 H             1 RES     
    2301 H           -2.1283    22.4973    12.4707 H             1 RES     
    2302 H           -0.2308    21.9997    11.0659 H             1 RES     
    2303 H            0.3554    22.7006    12.6107 H             1 RES     
    2304 H            0.0174    24.2761     9.9650 H             1 RES     
    2305 H            0.7301    24.9011    11.5068 H             1 RES     
    2306 H            2.5536    23.1904    11.3649 H             1 RES     
    2307 H            1.8583    22.5702     9.8227 H             1 RES     
    2308 H            3.8865    26.2638     9.9140 H             1 RES     
    2309 C            0.5384     3.9676    21.9150 C             1 RES     
    2310 C            0.4679     5.3117    21.1899 C             1 RES     
    2311 C            1.4860     5.4221    20.0445 C             1 RES     
    2312 C            1.1525     4.4896    18.8667 C             1 RES     
    2313 C            2.0083     4.7808    17.6241 C             1 RES     
    2314 C            3.4931     4.4349    17.8370 C             1 RES     
    2315 C            4.2981     4.4689    16.5287 C             1 RES     
    2316 C            4.5019     5.8966    15.9990 C             1 RES     
    2317 C            5.3625     5.8952    14.7621 C             1 RES     
    2318 C            4.9265     5.6080    13.5207 C             1 RES     
    2319 C            3.4942     5.2915    13.1542 C             1 RES     
    2320 C            3.4179     4.0771    12.2205 C             1 RES     
    2321 C            3.7443     2.7644    12.9540 C             1 RES     
    2322 C            3.8248     1.5634    11.9888 C             1 RES     
    2323 C            5.2665     1.1338    11.6661 C             1 RES     
    2324 C            6.0432     2.1957    10.8751 C             1 RES     
    2325 C            7.4217     1.6730    10.4612 C             1 RES     
    2326 C            8.1750     2.7250     9.7105 C             1 RES     
    2327 O            8.1750     2.7250     8.4500 O             1 RES     
    2328 O            8.8417     3.7288    10.4065 O             1 RES     
    2329 H            0.2030     3.1450    21.2496 H             1 RES     
    2330 H           -0.1304     3.9905    22.8010 H             1 RES     
    2331 H            1.5748     3.7655    22.2603 H             1 RES     
    2332 H            0.6798     6.1166    21.9267 H             1 RES     
    2333 H           -0.5619     5.4732    20.8035 H             1 RES     
    2334 H            1.4851     6.4747    19.6860 H             1 RES     
    2335 H            2.5018     5.1977    20.4349 H             1 RES     
    2336 H            1.2904     3.4288    19.1669 H             1 RES     
    2337 H            0.0853     4.6257    18.5869 H             1 RES     
    2338 H            1.6096     4.1714    16.7834 H             1 RES     
    2339 H            1.8988     5.8510    17.3471 H             1 RES     
    2340 H            3.9499     5.1355    18.5687 H             1 RES     
    2341 H            3.5688     3.4084    18.2578 H             1 RES     
    2342 H            3.7968     3.8349    15.7683 H             1 RES     
    2343 H            5.2965     4.0190    16.7259 H             1 RES     
    2344 H            5.0214     6.4936    16.7795 H             1 RES     
    2345 H            3.5363     6.4021    15.7914 H             1 RES     
    2346 H            6.4074     6.1665    14.8821 H             1 RES     
    2347 H            5.6446     5.6768    12.7081 H             1 RES     
    2348 H            2.8501     5.1104    14.0378 H             1 RES     
    2349 H            3.0783     6.1731    12.6221 H             1 RES     
    2350 H            4.1002     4.2292    11.3574 H             1 RES     
    2351 H            2.3850     4.0094    11.8145 H             1 RES     
    2352 H            4.6909     2.8633    13.5285 H             1 RES     
    2353 H            2.9362     2.5732    13.6943 H             1 RES     
    2354 H            3.2698     1.7644    11.0458 H             1 RES     
    2355 H            3.3217     0.6963    12.4707 H             1 RES     
    2356 H            5.2192     0.1987    11.0659 H             1 RES     
    2357 H            5.8054     0.8996    12.6107 H             1 RES     
    2358 H            5.4674     2.4751     9.9650 H             1 RES     
    2359 H            6.1801     3.1001    11.5068 H             1 RES     
    2360 H            8.0036     1.3894    11.3649 H             1 RES     
    2361 H            7.3083     0.7692     9.8227 H             1 RES     
    2362 H            9.3365     4.4628     9.9140 H             1 RES     
    2363 ZN           0.0000     0.0000    40.0000 ZN            1 RES     
    2364 ZN           0.0000    -0.0000    34.5500 ZN            1 RES     
    2365 ZN          38.1520    -0.0000    40.0000 ZN            1 RES     
    2366 ZN          38.1520    -0.0000    34.5500 ZN            1 RES     
    2367 ZN          -0.0000    38.1520    40.0000 ZN            1 RES     
    2368 ZN          -0.0000    38.1520    34.5500 ZN            1 RES     
    2369 ZN          38.1520    38.1520    40.0000 ZN            1 RES     
    2370 ZN          38.1520    38.1520    34.5500 ZN            1 RES     
    2371 ZN           2.7250    -0.0000    37.2750 ZN            1 RES     
    2372 ZN           2.7250    38.1520    37.2750 ZN            1 RES     
    2373 ZN          -0.0000     2.7250    37.2750 ZN            1 RES     
    2374 ZN          38.1520     2.7250    37.2750 ZN            1 RES     
    2375 ZN           2.7250     2.7250    40.0000 ZN            1 RES     
    2376 ZN           2.7250     2.7250    34.5500 ZN            1 RES     
    2377 ZN           5.4500    -0.0000    40.0000 ZN            1 RES     
    2378 ZN           5.4500    -0.0000    34.5500 ZN            1 RES     
    2379 ZN           5.4500    38.1520    40.0000 ZN            1 RES     
    2380 ZN           5.4500    38.1520    34.5500 ZN            1 RES     
    2381 ZN          32.7020    -0.0000    40.0000 ZN            1 RES     
    2382 ZN          32.7020    -0.0000    34.5500 ZN            1 RES     
    2383 ZN          32.7020    38.1520    40.0000 ZN            1 RES     
    2384 ZN          32.7020    38.1520    34.5500 ZN            1 RES     
    2385 ZN          -0.0000     5.4500    40.0000 ZN            1 RES     
    2386 ZN          -0.0000     5.4500    34.5500 ZN            1 RES     
    2387 ZN          38.1520     5.4500    40.0000 ZN            1 RES     
    2388 ZN          38.1520     5.4500    34.5500 ZN            1 RES     
    2389 ZN          -0.0000    32.7020    40.0000 ZN            1 RES     
    2390 ZN          -0.0000    32.7020    34.5500 ZN            1 RES     
    2391 ZN          38.1520    32.7020    40.0000 ZN            1 RES     
    2392 ZN          38.1520    32.7020    34.5500 ZN            1 RES     
    2393 ZN           8.1750    -0.0000    37.2750 ZN            1 RES     
    2394 ZN           8.1750    38.1520    37.2750 ZN            1 RES     
    2395 ZN          35.4270    -0.0000    37.2750 ZN            1 RES     
    2396 ZN          35.4270    38.1520    37.2750 ZN            1 RES     
    2397 ZN           2.7250     5.4500    37.2750 ZN            1 RES     
    2398 ZN           2.7250    32.7020    37.2750 ZN            1 RES     
    2399 ZN           5.4500     2.7250    37.2750 ZN            1 RES     
    2400 ZN          32.7020     2.7250    37.2750 ZN            1 RES     
    2401 ZN          -0.0000     8.1750    37.2750 ZN            1 RES     
    2402 ZN          38.1520     8.1750    37.2750 ZN            1 RES     
    2403 ZN          -0.0000    35.4270    37.2750 ZN            1 RES     
    2404 ZN          38.1520    35.4270    37.2750 ZN            1 RES     
    2405 ZN           8.1750     2.7250    40.0000 ZN            1 RES     
    2406 ZN           8.1750     2.7250    34.5500 ZN            1 RES     
    2407 ZN          35.4270     2.7250    40.0000 ZN            1 RES     
    2408 ZN          35.4270     2.7250    34.5500 ZN            1 RES     
    2409 ZN           2.7250     8.1750    40.0000 ZN            1 RES     
    2410 ZN           2.7250     8.1750    34.5500 ZN            1 RES     
    2411 ZN           2.7250    35.4270    40.0000 ZN            1 RES     
    2412 ZN           2.7250    35.4270    34.5500 ZN            1 RES     
    2413 ZN          10.9010    -0.0000    40.0000 ZN            1 RES     
    2414 ZN          10.9010    -0.0000    34.5500 ZN            1 RES     
    2415 ZN          10.9010    38.1520    40.0000 ZN            1 RES     
    2416 ZN          10.9010    38.1520    34.5500 ZN            1 RES     
    2417 ZN          27.2510    -0.0000    40.0000 ZN            1 RES     
    2418 ZN          27.2510    -0.0000    34.5500 ZN            1 RES     
    2419 ZN          27.2510    38.1520    40.0000 ZN            1 RES     
    2420 ZN          27.2510    38.1520    34.5500 ZN            1 RES     
    2421 ZN          -0.0000    10.9010    40.0000 ZN            1 RES     
    2422 ZN          -0.0000    10.9010    34.5500 ZN            1 RES     
    2423 ZN          38.1520    10.9010    40.0000 ZN            1 RES     
    2424 ZN          38.1520    10.9010    34.5500 ZN            1 RES     
    2425 ZN          -0.0000    27.2510    40.0000 ZN            1 RES     
    2426 ZN          -0.0000    27.2510    34.5500 ZN            1 RES     
    2427 ZN          38.1520    27.2510    40.0000 ZN            1 RES     
    2428 ZN          38.1520    27.2510    34.5500 ZN            1 RES     
    2429 ZN          13.6260    -0.0000    37.2750 ZN            1 RES     
    2430 ZN          13.6260    38.1520    37.2750 ZN            1 RES     
    2431 ZN          29.9760    -0.0000    37.2750 ZN            1 RES     
    2432 ZN          29.9760    38.1520    37.2750 ZN            1 RES     
    2433 ZN           2.7250    10.9010    37.2750 ZN            1 RES     
    2434 ZN           2.7250    27.2510    37.2750 ZN            1 RES     
    2435 ZN          10.9010     2.7250    37.2750 ZN            1 RES     
    2436 ZN          27.2510     2.7250    37.2750 ZN            1 RES     
    2437 ZN          -0.0000    13.6260    37.2750 ZN            1 RES     
    2438 ZN          38.1520    13.6260    37.2750 ZN            1 RES     
    2439 ZN          -0.0000    29.9760    37.2750 ZN            1 RES     
    2440 ZN          38.1520    29.9760    37.2750 ZN            1 RES     
    2441 ZN          13.6260     2.7250    40.0000 ZN            1 RES     
    2442 ZN          13.6260     2.7250    34.5500 ZN            1 RES     
    2443 ZN          29.9760     2.7250    40.0000 ZN            1 RES     
    2444 ZN          29.9760     2.7250    34.5500 ZN            1 RES     
    2445 ZN           2.7250    13.6260    40.0000 ZN            1 RES     
    2446 ZN           2.7250    13.6260    34.5500 ZN            1 RES     
    2447 ZN           2.7250    29.9760    40.0000 ZN            1 RES     
    2448 ZN           2.7250    29.9760    34.5500 ZN            1 RES     
    2449 ZN          16.3510    -0.0000    40.0000 ZN            1 RES     
    2450 ZN          16.3510    -0.0000    34.5500 ZN            1 RES     
    2451 ZN          16.3510    38.1520    40.0000 ZN            1 RES     
    2452 ZN          16.3510    38.1520    34.5500 ZN            1 RES     
    2453 ZN          21.8010    -0.0000    40.0000 ZN            1 RES     
    2454 ZN          21.8010    -0.0000    34.5500 ZN            1 RES     
    2455 ZN          21.8010    38.1520    40.0000 ZN            1 RES     
    2456 ZN          21.8010    38.1520    34.5500 ZN            1 RES     
    2457 ZN          -0.0000    16.3510    40.0000 ZN            1 RES     
    2458 ZN          -0.0000    16.3510    34.5500 ZN            1 RES     
    2459 ZN          38.1520    16.3510    40.0000 ZN            1 RES     
    2460 ZN          38.1520    16.3510    34.5500 ZN            1 RES     
    2461 ZN          -0.0000    21.8010    40.0000 ZN            1 RES     
    2462 ZN          -0.0000    21.8010    34.5500 ZN            1 RES     
    2463 ZN          38.1520    21.8010    40.0000 ZN            1 RES     
    2464 ZN          38.1520    21.8010    34.5500 ZN            1 RES     
    2465 ZN          19.0760    -0.0000    37.2750 ZN            1 RES     
    2466 ZN          19.0760    38.1520    37.2750 ZN            1 RES     
    2467 ZN          24.5260    -0.0000    37.2750 ZN            1 RES     
    2468 ZN          24.5260    38.1520    37.2750 ZN            1 RES     
    2469 ZN           2.7250    16.3510    37.2750 ZN            1 RES     
    2470 ZN           2.7250    21.8010    37.2750 ZN            1 RES     
    2471 ZN          16.3510     2.7250    37.2750 ZN            1 RES     
    2472 ZN          21.8010     2.7250    37.2750 ZN            1 RES     
    2473 ZN          -0.0000    19.0760    37.2750 ZN            1 RES     
    2474 ZN          38.1520    19.0760    37.2750 ZN            1 RES     
    2475 ZN          -0.0000    24.5260    37.2750 ZN            1 RES     
    2476 ZN          38.1520    24.5260    37.2750 ZN            1 RES     
    2477 ZN          19.0760     2.7250    40.0000 ZN            1 RES     
    2478 ZN          19.0760     2.7250    34.5500 ZN            1 RES     
    2479 ZN          24.5260     2.7250    40.0000 ZN            1 RES     
    2480 ZN          24.5260     2.7250    34.5500 ZN            1 RES     
    2481 ZN           2.7250    19.0760    40.0000 ZN            1 RES     
    2482 ZN           2.7250    19.0760    34.5500 ZN            1 RES     
    2483 ZN           2.7250    24.5260    40.0000 ZN            1 RES     
    2484 ZN           2.7250    24.5260    34.5500 ZN            1 RES     
    2485 ZN           5.4500     5.4500    40.0000 ZN            1 RES     
    2486 ZN           5.4500     5.4500    34.5500 ZN            1 RES     
    2487 ZN          32.7020    32.7020    40.0000 ZN            1 RES     
    2488 ZN          32.7020    32.7020    34.5500 ZN            1 RES     
    2489 ZN           5.4500    32.7020    40.0000 ZN            1 RES     
    2490 ZN           5.4500    32.7020    34.5500 ZN            1 RES     
    2491 ZN          32.7020     5.4500    40.0000 ZN            1 RES     
    2492 ZN          32.7020     5.4500    34.5500 ZN            1 RES     
    2493 ZN           8.1750     5.4500    37.2750 ZN            1 RES     
    2494 ZN          35.4270    32.7020    37.2750 ZN            1 RES     
    2495 ZN           8.1750    32.7020    37.2750 ZN            1 RES     
    2496 ZN          35.4270     5.4500    37.2750 ZN            1 RES     
    2497 ZN           5.4500     8.1750    37.2750 ZN            1 RES     
    2498 ZN          32.7020    35.4270    37.2750 ZN            1 RES     
    2499 ZN           5.4500    35.4270    37.2750 ZN            1 RES     
    2500 ZN          32.7020     8.1750    37.2750 ZN            1 RES     
    2501 ZN           8.1750     8.1750    40.0000 ZN            1 RES     
    2502 ZN           8.1750     8.1750    34.5500 ZN            1 RES     
    2503 ZN          35.4270    35.4270    40.0000 ZN            1 RES     
    2504 ZN          35.4270    35.4270    34.5500 ZN            1 RES     
    2505 ZN           8.1750    35.4270    40.0000 ZN            1 RES     
    2506 ZN           8.1750    35.4270    34.5500 ZN            1 RES     
    2507 ZN          35.4270     8.1750    40.0000 ZN            1 RES     
    2508 ZN          35.4270     8.1750    34.5500 ZN            1 RES     
    2509 ZN          10.9010     5.4500    40.0000 ZN            1 RES     
    2510 ZN          10.9010     5.4500    34.5500 ZN            1 RES     
    2511 ZN          27.2510    32.7020    40.0000 ZN            1 RES     
    2512 ZN          27.2510    32.7020    34.5500 ZN            1 RES     
    2513 ZN          10.9010    32.7020    40.0000 ZN            1 RES     
    2514 ZN          10.9010    32.7020    34.5500 ZN            1 RES     
    2515 ZN          27.2510     5.4500    40.0000 ZN            1 RES     
    2516 ZN          27.2510     5.4500    34.5500 ZN            1 RES     
    2517 ZN           5.4500    10.9010    40.0000 ZN            1 RES     
    2518 ZN           5.4500    10.9010    34.5500 ZN            1 RES     
    2519 ZN          32.7020    27.2510    40.0000 ZN            1 RES     
    2520 ZN          32.7020    27.2510    34.5500 ZN            1 RES     
    2521 ZN          32.7020    10.9010    40.0000 ZN            1 RES     
    2522 ZN          32.7020    10.9010    34.5500 ZN            1 RES     
    2523 ZN           5.4500    27.2510    40.0000 ZN            1 RES     
    2524 ZN           5.4500    27.2510    34.5500 ZN            1 RES     
    2525 ZN          13.6260     5.4500    37.2750 ZN            1 RES     
    2526 ZN          29.9760    32.7020    37.2750 ZN            1 RES     
    2527 ZN          13.6260    32.7020    37.2750 ZN            1 RES     
    2528 ZN          29.9760     5.4500    37.2750 ZN            1 RES     
    2529 ZN           8.1750    10.9010    37.2750 ZN            1 RES     
    2530 ZN          35.4270    27.2510    37.2750 ZN            1 RES     
    2531 ZN          35.4270    10.9010    37.2750 ZN            1 RES     
    2532 ZN           8.1750    27.2510    37.2750 ZN            1 RES     
    2533 ZN          10.9010     8.1750    37.2750 ZN            1 RES     
    2534 ZN          27.2510    35.4270    37.2750 ZN            1 RES     
    2535 ZN          10.9010    35.4270    37.2750 ZN            1 RES     
    2536 ZN          27.2510     8.1750    37.2750 ZN            1 RES     
    2537 ZN           5.4500    13.6260    37.2750 ZN            1 RES     
    2538 ZN          32.7020    29.9760    37.2750 ZN            1 RES     
    2539 ZN          32.7020    13.6260    37.2750 ZN            1 RES     
    2540 ZN           5.4500    29.9760    37.2750 ZN            1 RES     
    2541 ZN          13.6260     8.1750    40.0000 ZN            1 RES     
    2542 ZN          13.6260     8.1750    34.5500 ZN            1 RES     
    2543 ZN          29.9760    35.4270    40.0000 ZN            1 RES     
    2544 ZN          29.9760    35.4270    34.5500 ZN            1 RES     
    2545 ZN          13.6260    35.4270    40.0000 ZN            1 RES     
    2546 ZN          13.6260    35.4270    34.5500 ZN            1 RES     
    2547 ZN          29.9760     8.1750    40.0000 ZN            1 RES     
    2548 ZN          29.9760     8.1750    34.5500 ZN            1 RES     
    2549 ZN           8.1750    13.6260    40.0000 ZN            1 RES     
    2550 ZN           8.1750    13.6260    34.5500 ZN            1 RES     
    2551 ZN          35.4270    29.9760    40.0000 ZN            1 RES     
    2552 ZN          35.4270    29.9760    34.5500 ZN            1 RES     
    2553 ZN          35.4270    13.6260    40.0000 ZN            1 RES     
    2554 ZN          35.4270    13.6260    34.5500 ZN            1 RES     
    2555 ZN           8.1750    29.9760    40.0000 ZN            1 RES     
    2556 ZN           8.1750    29.9760    34.5500 ZN            1 RES     
    2557 ZN          16.3510     5.4500    40.0000 ZN            1 RES     
    2558 ZN          16.3510     5.4500    34.5500 ZN            1 RES     
    2559 ZN          21.8010    32.7020    40.0000 ZN            1 RES     
    2560 ZN          21.8010    32.7020    34.5500 ZN            1 RES     
    2561 ZN          16.3510    32.7020    40.0000 ZN            1 RES     
    2562 ZN          16.3510    32.7020    34.5500 ZN            1 RES     
    2563 ZN          21.8010     5.4500    40.0000 ZN            1 RES     
    2564 ZN          21.8010     5.4500    34.5500 ZN            1 RES     
    2565 ZN           5.4500    16.3510    40.0000 ZN            1 RES     
    2566 ZN           5.4500    16.3510    34.5500 ZN            1 RES     
    2567 ZN          32.7020    21.8010    40.0000 ZN            1 RES     
    2568 ZN          32.7020    21.8010    34.5500 ZN            1 RES     
    2569 ZN          32.7020    16.3510    40.0000 ZN            1 RES     
    2570 ZN          32.7020    16.3510    34.5500 ZN            1 RES     
    2571 ZN           5.4500    21.8010    40.0000 ZN            1 RES     
    2572 ZN           5.4500    21.8010    34.5500 ZN            1 RES     
    2573 ZN          19.0760     5.4500    37.2750 ZN            1 RES     
    2574 ZN          24.5260    32.7020    37.2750 ZN            1 RES     
    2575 ZN          19.0760    32.7020    37.2750 ZN            1 RES     
    2576 ZN          24.5260     5.4500    37.2750 ZN            1 RES     
    2577 ZN           8.1750    16.3510    37.2750 ZN            1 RES     
    2578 ZN          35.4270    21.8010    37.2750 ZN            1 RES     
    2579 ZN          35.4270    16.3510    37.2750 ZN            1 RES     
    2580 ZN           8.1750    21.8010    37.2750 ZN            1 RES     
    2581 ZN          16.3510     8.1750    37.2750 ZN            1 RES     
    2582 ZN          21.8010    35.4270    37.2750 ZN            1 RES     
    2583 ZN          16.3510    35.4270    37.2750 ZN            1 RES     
    2584 ZN          21.8010     8.1750    37.2750 ZN            1 RES     
    2585 ZN           5.4500    19.0760    37.2750 ZN            1 RES     
    2586 ZN          32.7020    24.5260    37.2750 ZN            1 RES     
    2587 ZN          32.7020    19.0760    37.2750 ZN            1 RES     
    2588 ZN           5.4500    24.5260    37.2750 ZN            1 RES     
    2589 ZN          19.0760     8.1750    40.0000 ZN            1 RES     
    2590 ZN          19.0760     8.1750    34.5500 ZN            1 RES     
    2591 ZN          24.5260    35.4270    40.0000 ZN            1 RES     
    2592 ZN          24.5260    35.4270    34.5500 ZN            1 RES     
    2593 ZN          19.0760    35.4270    40.0000 ZN            1 RES     
    2594 ZN          19.0760    35.4270    34.5500 ZN            1 RES     
    2595 ZN          24.5260     8.1750    40.0000 ZN            1 RES     
    2596 ZN          24.5260     8.1750    34.5500 ZN            1 RES     
    2597 ZN           8.1750    19.0760    40.0000 ZN            1 RES     
    2598 ZN           8.1750    19.0760    34.5500 ZN            1 RES     
    2599 ZN          35.4270    24.5260    40.0000 ZN            1 RES     
    2600 ZN          35.4270    24.5260    34.5500 ZN            1 RES     
    2601 ZN          35.4270    19.0760    40.0000 ZN            1 RES     
    2602 ZN          35.4270    19.0760    34.5500 ZN            1 RES     
    2603 ZN           8.1750    24.5260    40.0000 ZN            1 RES     
    2604 ZN           8.1750    24.5260    34.5500 ZN            1 RES     
    2605 ZN          10.9010    10.9010    40.0000 ZN            1 RES     
    2606 ZN          10.9010    10.9010    34.5500 ZN            1 RES     
    2607 ZN          27.2510    27.2510    40.0000 ZN            1 RES     
    2608 ZN          27.2510    27.2510    34.5500 ZN            1 RES     
    2609 ZN          10.9010    27.2510    40.0000 ZN            1 RES     
    2610 ZN          10.9010    27.2510    34.5500 ZN            1 RES     
    2611 ZN          27.2510    10.9010    40.0000 ZN            1 RES     
    2612 ZN          27.2510    10.9010    34.5500 ZN            1 RES     
    2613 ZN          13.6260    10.9010    37.2750 ZN            1 RES     
    2614 ZN          29.9760    27.2510    37.2750 ZN            1 RES     
    2615 ZN          13.6260    27.2510    37.2750 ZN            1 RES     
    2616 ZN          29.9760    10.9010    37.2750 ZN            1 RES     
    2617 ZN          10.9010    13.6260    37.2750 ZN            1 RES     
    2618 ZN          27.2510    29.9760    37.2750 ZN            1 RES     
    2619 ZN          10.9010    29.9760    37.2750 ZN            1 RES     
    2620 ZN          27.2510    13.6260    37.2750 ZN            1 RES     
    2621 ZN          13.6260    13.6260    40.0000 ZN            1 RES     
    2622 ZN          13.6260    13.6260    34.5500 ZN            1 RES     
    2623 ZN          29.9760    29.9760    40.0000 ZN            1 RES     
    2624 ZN          29.9760    29.9760    34.5500 ZN            1 RES     
    2625 ZN          13.6260    29.9760    40.0000 ZN            1 RES     
    2626 ZN          13.6260    29.9760    34.5500 ZN            1 RES     
    2627 ZN          29.9760    13.6260    40.0000 ZN            1 RES     
    2628 ZN          29.9760    13.6260    34.5500 ZN            1 RES     
    2629 ZN          16.3510    10.9010    40.0000 ZN            1 RES     
    2630 ZN          16.3510    10.9010    34.5500 ZN            1 RES     
    2631 ZN          21.8010    27.2510    40.0000 ZN            1 RES     
    2632 ZN          21.8010    27.2510    34.5500 ZN            1 RES     
    2633 ZN          16.3510    27.2510    40.0000 ZN            1 RES     
    2634 ZN          16.3510    27.2510    34.5500 ZN            1 RES     
    2635 ZN          21.8010    10.9010    40.0000 ZN            1 RES     
    2636 ZN          21.8010    10.9010    34.5500 ZN            1 RES     
    2637 ZN          10.9010    16.3510    40.0000 ZN            1 RES     
    2638 ZN          10.9010    16.3510    34.5500 ZN            1 RES     
    2639 ZN          27.2510    21.8010    40.0000 ZN            1 RES     
    2640 ZN          27.2510    21.8010    34.5500 ZN            1 RES     
    2641 ZN          27.2510    16.3510    40.0000 ZN            1 RES     
    2642 ZN          27.2510    16.3510    34.5500 ZN            1 RES     
    2643 ZN          10.9010    21.8010    40.0000 ZN            1 RES     
    2644 ZN          10.9010    21.8010    34.5500 ZN            1 RES     
    2645 ZN          19.0760    10.9010    37.2750 ZN            1 RES     
    2646 ZN          24.5260    27.2510    37.2750 ZN            1 RES     
    2647 ZN          19.0760    27.2510    37.2750 ZN            1 RES     
    2648 ZN          24.5260    10.9010    37.2750 ZN            1 RES     
    2649 ZN          13.6260    16.3510    37.2750 ZN            1 RES     
    2650 ZN          29.9760    21.8010    37.2750 ZN            1 RES     
    2651 ZN          29.9760    16.3510    37.2750 ZN            1 RES     
    2652 ZN          13.6260    21.8010    37.2750 ZN            1 RES     
    2653 ZN          16.3510    13.6260    37.2750 ZN            1 RES     
    2654 ZN          21.8010    29.9760    37.2750 ZN            1 RES     
    2655 ZN          16.3510    29.9760    37.2750 ZN            1 RES     
    2656 ZN          21.8010    13.6260    37.2750 ZN            1 RES     
    2657 ZN          10.9010    19.0760    37.2750 ZN            1 RES     
    2658 ZN          27.2510    24.5260    37.2750 ZN            1 RES     
    2659 ZN          27.2510    19.0760    37.2750 ZN            1 RES     
    2660 ZN          10.9010    24.5260    37.2750 ZN            1 RES     
    2661 ZN          19.0760    13.6260    40.0000 ZN            1 RES     
    2662 ZN          19.0760    13.6260    34.5500 ZN            1 RES     
    2663 ZN          24.5260    29.9760    40.0000 ZN            1 RES     
    2664 ZN          24.5260    29.9760    34.5500 ZN            1 RES     
    2665 ZN          19.0760    29.9760    40.0000 ZN            1 RES     
    2666 ZN          19.0760    29.9760    34.5500 ZN            1 RES     
    2667 ZN          24.5260    13.6260    40.0000 ZN            1 RES     
    2668 ZN          24.5260    13.6260    34.5500 ZN            1 RES     
    2669 ZN          13.6260    19.0760    40.0000 ZN            1 RES     
    2670 ZN          13.6260    19.0760    34.5500 ZN            1 RES     
    2671 ZN          29.9760    24.5260    40.0000 ZN            1 RES     
    2672 ZN          29.9760    24.5260    34.5500 ZN            1 RES     
    2673 ZN          29.9760    19.0760    40.0000 ZN            1 RES     
    2674 ZN          29.9760    19.0760    34.5500 ZN            1 RES     
    2675 ZN          13.6260    24.5260    40.0000 ZN            1 RES     
    2676 ZN          13.6260    24.5260    34.5500 ZN            1 RES     
    2677 ZN          16.3510    16.3510    40.0000 ZN            1 RES     
    2678 ZN          16.3510    16.3510    34.5500 ZN            1 RES     
    2679 ZN          21.8010    21.8010    40.0000 ZN            1 RES     
    2680 ZN          21.8010    21.8010    34.5500 ZN            1 RES     
    2681 ZN          16.3510    21.8010    40.0000 ZN            1 RES     
    2682 ZN          16.3510    21.8010    34.5500 ZN            1 RES     
    2683 ZN          21.8010    16.3510    40.0000 ZN            1 RES     
    2684 ZN          21.8010    16.3510    34.5500 ZN            1 RES     
    2685 ZN          19.0760    16.3510    37.2750 ZN            1 RES     
    2686 ZN          24.5260    21.8010    37.2750 ZN            1 RES     
    2687 ZN          19.0760    21.8010    37.2750 ZN            1 RES     
    2688 ZN          24.5260    16.3510    37.2750 ZN            1 RES     
    2689 ZN          16.3510    19.0760    37.2750 ZN            1 RES     
    2690 ZN          21.8010    24.5260    37.2750 ZN            1 RES     
    2691 ZN          16.3510    24.5260    37.2750 ZN            1 RES     
    2692 ZN          21.8010    19.0760    37.2750 ZN            1 RES     
    2693 ZN          19.0760    19.0760    40.0000 ZN            1 RES     
    2694 ZN          19.0760    19.0760    34.5500 ZN            1 RES     
    2695 ZN          24.5260    24.5260    40.0000 ZN            1 RES     
    2696 ZN          24.5260    24.5260    34.5500 ZN            1 RES     
    2697 ZN          19.0760    24.5260    40.0000 ZN            1 RES     
    2698 ZN          19.0760    24.5260    34.5500 ZN            1 RES     
    2699 ZN          24.5260    19.0760    40.0000 ZN            1 RES     
    2700 ZN          24.5260    19.0760    34.5500 ZN            1 RES     
    2701 S            1.3630     1.3630    35.9120 S             1 RES     
    2702 S           36.7890    36.7890    35.9120 S             1 RES     
    2703 S            1.3630    36.7890    38.6370 S             1 RES     
    2704 S           36.7890     1.3630    38.6370 S             1 RES     
    2705 S            1.3630     4.0880    38.6370 S             1 RES     
    2706 S           36.7890     4.0880    35.9120 S             1 RES     
    2707 S           36.7890    34.0640    38.6370 S             1 RES     
    2708 S            1.3630    34.0640    35.9120 S             1 RES     
    2709 S            4.0880     1.3630    38.6370 S             1 RES     
    2710 S            4.0880    36.7890    35.9120 S             1 RES     
    2711 S           34.0640     1.3630    35.9120 S             1 RES     
    2712 S           34.0640    36.7890    38.6370 S             1 RES     
    2713 S            4.0880     4.0880    35.9120 S             1 RES     
    2714 S            4.0880    34.0640    38.6370 S             1 RES     
    2715 S            6.8130     1.3630    35.9120 S             1 RES     
    2716 S            6.8130    36.7890    38.6370 S             1 RES     
    2717 S            1.3630     6.8130    35.9120 S             1 RES     
    2718 S           36.7890     6.8130    38.6370 S             1 RES     
    2719 S           34.0640     4.0880    38.6370 S             1 RES     
    2720 S            4.0880     6.8130    38.6370 S             1 RES     
    2721 S            6.8130     4.0880    38.6370 S             1 RES     
    2722 S           31.3390    36.7890    35.9120 S             1 RES     
    2723 S           31.3390     1.3630    38.6370 S             1 RES     
    2724 S            4.0880    31.3390    35.9120 S             1 RES     
    2725 S           34.0640     6.8130    35.9120 S             1 RES     
    2726 S           34.0640    31.3390    38.6370 S             1 RES     
    2727 S           36.7890    31.3390    35.9120 S             1 RES     
    2728 S            1.3630    31.3390    38.6370 S             1 RES     
    2729 S           31.3390     4.0880    35.9120 S             1 RES     
    2730 S            6.8130    34.0640    35.9120 S             1 RES     
    2731 S           31.3390    34.0640    38.6370 S             1 RES     
    2732 S            9.5380     1.3630    38.6370 S             1 RES     
    2733 S            9.5380    36.7890    35.9120 S             1 RES     
    2734 S            6.8130     6.8130    35.9120 S             1 RES     
    2735 S            6.8130    31.3390    38.6370 S             1 RES     
    2736 S            9.5380     4.0880    35.9120 S             1 RES     
    2737 S            9.5380    34.0640    38.6370 S             1 RES     
    2738 S           34.0640    34.0640    35.9120 S             1 RES     
    2739 S            4.0880     9.5380    35.9120 S             1 RES     
    2740 S           34.0640     9.5380    38.6370 S             1 RES     
    2741 S            1.3630     9.5380    38.6370 S             1 RES     
    2742 S           36.7890     9.5380    35.9120 S             1 RES     
    2743 S           31.3390     6.8130    38.6370 S             1 RES     
    2744 S            6.8130     9.5380    38.6370 S             1 RES     
    2745 S            9.5380     6.8130    38.6370 S             1 RES     
    2746 S           12.2630     1.3630    35.9120 S             1 RES     
    2747 S           25.8890    36.7890    35.9120 S             1 RES     
    2748 S           12.2630    36.7890    38.6370 S             1 RES     
    2749 S           25.8890     1.3630    38.6370 S             1 RES     
    2750 S            4.0880    12.2630    38.6370 S             1 RES     
    2751 S            4.0880    25.8890    35.9120 S             1 RES     
    2752 S           34.0640    12.2630    35.9120 S             1 RES     
    2753 S           34.0640    25.8890    38.6370 S             1 RES     
    2754 S            1.3630    12.2630    35.9120 S             1 RES     
    2755 S           36.7890    25.8890    35.9120 S             1 RES     
    2756 S           36.7890    12.2630    38.6370 S             1 RES     
    2757 S            1.3630    25.8890    38.6370 S             1 RES     
    2758 S           12.2630     4.0880    38.6370 S             1 RES     
    2759 S           25.8890     4.0880    35.9120 S             1 RES     
    2760 S           12.2630    34.0640    35.9120 S             1 RES     
    2761 S           25.8890    34.0640    38.6370 S             1 RES     
    2762 S           14.9880     1.3630    38.6370 S             1 RES     
    2763 S           28.6140    36.7890    38.6370 S             1 RES     
    2764 S           14.9880    36.7890    35.9120 S             1 RES     
    2765 S           28.6140     1.3630    35.9120 S             1 RES     
    2766 S            6.8130    12.2630    35.9120 S             1 RES     
    2767 S            6.8130    25.8890    38.6370 S             1 RES     
    2768 S           14.9880     4.0880    35.9120 S             1 RES     
    2769 S           28.6140     4.0880    38.6370 S             1 RES     
    2770 S           14.9880    34.0640    38.6370 S             1 RES     
    2771 S           28.6140    34.0640    35.9120 S             1 RES     
    2772 S            4.0880    14.9880    35.9120 S             1 RES     
    2773 S            4.0880    28.6140    38.6370 S             1 RES     
    2774 S           34.0640    14.9880    38.6370 S             1 RES     
    2775 S           34.0640    28.6140    35.9120 S             1 RES     
    2776 S            1.3630    14.9880    38.6370 S             1 RES     
    2777 S           36.7890    28.6140    38.6370 S             1 RES     
    2778 S           36.7890    14.9880    35.9120 S             1 RES     
    2779 S            1.3630    28.6140    35.9120 S             1 RES     
    2780 S           12.2630     6.8130    35.9120 S             1 RES     
    2781 S           25.8890     6.8130    38.6370 S             1 RES     
    2782 S            6.8130    14.9880    38.6370 S             1 RES     
    2783 S            6.8130    28.6140    35.9120 S             1 RES     
    2784 S           14.9880     6.8130    38.6370 S             1 RES     
    2785 S           28.6140     6.8130    35.9120 S             1 RES     
    2786 S           17.7130     1.3630    35.9120 S             1 RES     
    2787 S           20.4390    36.7890    35.9120 S             1 RES     
    2788 S           17.7130    36.7890    38.6370 S             1 RES     
    2789 S           20.4390     1.3630    38.6370 S             1 RES     
    2790 S            4.0880    17.7130    38.6370 S             1 RES     
    2791 S            4.0880    20.4390    35.9120 S             1 RES     
    2792 S           34.0640    17.7130    35.9120 S             1 RES     
    2793 S           34.0640    20.4390    38.6370 S             1 RES     
    2794 S            1.3630    17.7130    35.9120 S             1 RES     
    2795 S           36.7890    20.4390    35.9120 S             1 RES     
    2796 S           36.7890    17.7130    38.6370 S             1 RES     
    2797 S            1.3630    20.4390    38.6370 S             1 RES     
    2798 S           17.7130     4.0880    38.6370 S             1 RES     
    2799 S           20.4390     4.0880    35.9120 S             1 RES     
    2800 S           17.7130    34.0640    35.9120 S             1 RES     
    2801 S           20.4390    34.0640    38.6370 S             1 RES     
    2802 S           23.1640    36.7890    38.6370 S             1 RES     
    2803 S           23.1640     1.3630    35.9120 S             1 RES     
    2804 S            6.8130    17.7130    35.9120 S             1 RES     
    2805 S            6.8130    20.4390    38.6370 S             1 RES     
    2806 S           23.1640     4.0880    38.6370 S             1 RES     
    2807 S           23.1640    34.0640    35.9120 S             1 RES     
    2808 S            4.0880    23.1640    38.6370 S             1 RES     
    2809 S           34.0640    23.1640    35.9120 S             1 RES     
    2810 S           36.7890    23.1640    38.6370 S             1 RES     
    2811 S            1.3630    23.1640    35.9120 S             1 RES     
    2812 S           17.7130     6.8130    35.9120 S             1 RES     
    2813 S           20.4390     6.8130    38.6370 S             1 RES     
    2814 S            6.8130    23.1640    35.9120 S             1 RES     
    2815 S           23.1640     6.8130    35.9120 S             1 RES     
    2816 S           31.3390    31.3390    35.9120 S             1 RES     
    2817 S            9.5380    31.3390    35.9120 S             1 RES     
    2818 S           31.3390     9.5380    35.9120 S             1 RES     
    2819 S            9.5380     9.5380    35.9120 S             1 RES     
    2820 S           25.8890    31.3390    35.9120 S             1 RES     
    2821 S           12.2630    31.3390    38.6370 S             1 RES     
    2822 S           31.3390    25.8890    35.9120 S             1 RES     
    2823 S           31.3390    12.2630    38.6370 S             1 RES     
    2824 S           28.6140    31.3390    38.6370 S             1 RES     
    2825 S           14.9880    31.3390    35.9120 S             1 RES     
    2826 S            9.5380    12.2630    38.6370 S             1 RES     
    2827 S            9.5380    25.8890    35.9120 S             1 RES     
    2828 S           12.2630     9.5380    38.6370 S             1 RES     
    2829 S           25.8890     9.5380    35.9120 S             1 RES     
    2830 S           31.3390    28.6140    38.6370 S             1 RES     
    2831 S           31.3390    14.9880    35.9120 S             1 RES     
    2832 S           14.9880     9.5380    35.9120 S             1 RES     
    2833 S           28.6140     9.5380    38.6370 S             1 RES     
    2834 S            9.5380    14.9880    35.9120 S             1 RES     
    2835 S            9.5380    28.6140    38.6370 S             1 RES     
    2836 S           20.4390    31.3390    35.9120 S             1 RES     
    2837 S           17.7130    31.3390    38.6370 S             1 RES     
    2838 S           31.3390    20.4390    35.9120 S             1 RES     
    2839 S           31.3390    17.7130    38.6370 S             1 RES     
    2840 S           23.1640    31.3390    38.6370 S             1 RES     
    2841 S            9.5380    17.7130    38.6370 S             1 RES     
    2842 S            9.5380    20.4390    35.9120 S             1 RES     
    2843 S           17.7130     9.5380    38.6370 S             1 RES     
    2844 S           20.4390     9.5380    35.9120 S             1 RES     
    2845 S           31.3390    23.1640    38.6370 S             1 RES     
    2846 S           23.1640     9.5380    38.6370 S             1 RES     
    2847 S            9.5380    23.1640    38.6370 S             1 RES     
    2848 S           12.2630    12.2630    35.9120 S             1 RES     
    2849 S           25.8890    25.8890    35.9120 S             1 RES     
    2850 S           12.2630    25.8890    38.6370 S             1 RES     
    2851 S           25.8890    12.2630    38.6370 S             1 RES     
    2852 S           14.9880    12.2630    38.6370 S             1 RES     
    2853 S           28.6140    25.8890    38.6370 S             1 RES     
    2854 S           14.9880    25.8890    35.9120 S             1 RES     
    2855 S           28.6140    12.2630    35.9120 S             1 RES     
    2856 S           12.2630    14.9880    38.6370 S             1 RES     
    2857 S           25.8890    28.6140    38.6370 S             1 RES     
    2858 S           12.2630    28.6140    35.9120 S             1 RES     
    2859 S           25.8890    14.9880    35.9120 S             1 RES     
    2860 S           14.9880    14.9880    35.9120 S             1 RES     
    2861 S           28.6140    28.6140    35.9120 S             1 RES     
    2862 S           14.9880    28.6140    38.6370 S             1 RES     
    2863 S           28.6140    14.9880    38.6370 S             1 RES     
    2864 S           17.7130    12.2630    35.9120 S             1 RES     
    2865 S           20.4390    25.8890    35.9120 S             1 RES     
    2866 S           17.7130    25.8890    38.6370 S             1 RES     
    2867 S           20.4390    12.2630    38.6370 S             1 RES     
    2868 S           12.2630    17.7130    35.9120 S             1 RES     
    2869 S           25.8890    20.4390    35.9120 S             1 RES     
    2870 S           25.8890    17.7130    38.6370 S             1 RES     
    2871 S           12.2630    20.4390    38.6370 S             1 RES     
    2872 S           23.1640    25.8890    38.6370 S             1 RES     
    2873 S           23.1640    12.2630    35.9120 S             1 RES     
    2874 S           14.9880    17.7130    38.6370 S             1 RES     
    2875 S           28.6140    20.4390    38.6370 S             1 RES     
    2876 S           28.6140    17.7130    35.9120 S             1 RES     
    2877 S           14.9880    20.4390    35.9120 S             1 RES     
    2878 S           17.7130    14.9880    38.6370 S             1 RES     
    2879 S           20.4390    28.6140    38.6370 S             1 RES     
    2880 S           17.7130    28.6140    35.9120 S             1 RES     
    2881 S           20.4390    14.9880    35.9120 S             1 RES     
    2882 S           25.8890    23.1640    38.6370 S             1 RES     
    2883 S           12.2630    23.1640    35.9120 S             1 RES     
    2884 S           23.1640    28.6140    35.9120 S             1 RES     
    2885 S           23.1640    14.9880    38.6370 S             1 RES     
    2886 S           28.6140    23.1640    35.9120 S             1 RES     
    2887 S           14.9880    23.1640    38.6370 S             1 RES     
    2888 S           17.7130    17.7130    35.9120 S             1 RES     
    2889 S           20.4390    20.4390    35.9120 S             1 RES     
    2890 S           17.7130    20.4390    38.6370 S             1 RES     
    2891 S           20.4390    17.7130    38.6370 S             1 RES     
    2892 S           23.1640    20.4390    38.6370 S             1 RES     
    2893 S           23.1640    17.7130    35.9120 S             1 RES     
    2894 S           20.4390    23.1640    38.6370 S             1 RES     
    2895 S           17.7130    23.1640    35.9120 S             1 RES     
    2896 S           23.1640    23.1640    35.9120 S             1 RES     
    2897 S           -1.3630    -1.3630    41.3630 S             1 RES     
    2898 S            1.3630    -1.3630    38.6370 S             1 RES     
    2899 S           -1.3630     1.3630    38.6370 S             1 RES     
    2900 S            1.3630     1.3630    41.3630 S             1 RES     
    2901 S           -1.3630    -1.3630    35.9120 S             1 RES     
    2902 S            1.3630    -1.3630    33.1870 S             1 RES     
    2903 S           -1.3630     1.3630    33.1870 S             1 RES     
    2904 S           36.7890    -1.3630    41.3630 S             1 RES     
    2905 S           39.5140    -1.3630    38.6370 S             1 RES     
    2906 S           39.5140     1.3630    41.3630 S             1 RES     
    2907 S           36.7890    -1.3630    35.9120 S             1 RES     
    2908 S           39.5140    -1.3630    33.1870 S             1 RES     
    2909 S           36.7890     1.3630    33.1870 S             1 RES     
    2910 S           39.5140     1.3630    35.9120 S             1 RES     
    2911 S           -1.3630    36.7890    41.3630 S             1 RES     
    2912 S           -1.3630    39.5140    38.6370 S             1 RES     
    2913 S            1.3630    39.5140    41.3630 S             1 RES     
    2914 S           -1.3630    36.7890    35.9120 S             1 RES     
    2915 S            1.3630    36.7890    33.1870 S             1 RES     
    2916 S           -1.3630    39.5140    33.1870 S             1 RES     
    2917 S            1.3630    39.5140    35.9120 S             1 RES     
    2918 S           36.7890    36.7890    41.3630 S             1 RES     
    2919 S           39.5140    36.7890    38.6370 S             1 RES     
    2920 S           36.7890    39.5140    38.6370 S             1 RES     
    2921 S           39.5140    39.5140    41.3630 S             1 RES     
    2922 S           39.5140    36.7890    33.1870 S             1 RES     
    2923 S           36.7890    39.5140    33.1870 S             1 RES     
    2924 S           39.5140    39.5140    35.9120 S             1 RES     
    2925 S            4.0880    -1.3630    35.9120 S             1 RES     
    2926 S            4.0880    39.5140    38.6370 S             1 RES     
    2927 S           -1.3630     4.0880    35.9120 S             1 RES     
    2928 S           39.5140     4.0880    38.6370 S             1 RES     
    2929 S            4.0880     4.0880    41.3630 S             1 RES     
    2930 S            4.0880     1.3630    33.1870 S             1 RES     
    2931 S            1.3630     4.0880    33.1870 S             1 RES     
    2932 S            4.0880    -1.3630    41.3630 S             1 RES     
    2933 S            6.8130    -1.3630    38.6370 S             1 RES     
    2934 S            6.8130     1.3630    41.3630 S             1 RES     
    2935 S            6.8130    -1.3630    33.1870 S             1 RES     
    2936 S            4.0880    36.7890    41.3630 S             1 RES     
    2937 S            6.8130    39.5140    41.3630 S             1 RES     
    2938 S            6.8130    36.7890    33.1870 S             1 RES     
    2939 S            4.0880    39.5140    33.1870 S             1 RES     
    2940 S            6.8130    39.5140    35.9120 S             1 RES     
    2941 S           31.3390    -1.3630    41.3630 S             1 RES     
    2942 S           34.0640    -1.3630    38.6370 S             1 RES     
    2943 S           34.0640     1.3630    41.3630 S             1 RES     
    2944 S           31.3390    -1.3630    35.9120 S             1 RES     
    2945 S           34.0640    -1.3630    33.1870 S             1 RES     
    2946 S           31.3390     1.3630    33.1870 S             1 RES     
    2947 S           31.3390    36.7890    41.3630 S             1 RES     
    2948 S           31.3390    39.5140    38.6370 S             1 RES     
    2949 S           34.0640    39.5140    41.3630 S             1 RES     
    2950 S           34.0640    36.7890    33.1870 S             1 RES     
    2951 S           31.3390    39.5140    33.1870 S             1 RES     
    2952 S           34.0640    39.5140    35.9120 S             1 RES     
    2953 S           -1.3630     4.0880    41.3630 S             1 RES     
    2954 S           -1.3630     6.8130    38.6370 S             1 RES     
    2955 S            1.3630     6.8130    41.3630 S             1 RES     
    2956 S           -1.3630     6.8130    33.1870 S             1 RES     
    2957 S           36.7890     4.0880    41.3630 S             1 RES     
    2958 S           39.5140     6.8130    41.3630 S             1 RES     
    2959 S           39.5140     4.0880    33.1870 S             1 RES     
    2960 S           36.7890     6.8130    33.1870 S             1 RES     
    2961 S           39.5140     6.8130    35.9120 S             1 RES     
    2962 S           -1.3630    31.3390    41.3630 S             1 RES     
    2963 S           -1.3630    34.0640    38.6370 S             1 RES     
    2964 S            1.3630    34.0640    41.3630 S             1 RES     
    2965 S           -1.3630    31.3390    35.9120 S             1 RES     
    2966 S            1.3630    31.3390    33.1870 S             1 RES     
    2967 S           -1.3630    34.0640    33.1870 S             1 RES     
    2968 S           36.7890    31.3390    41.3630 S             1 RES     
    2969 S           39.5140    31.3390    38.6370 S             1 RES     
    2970 S           39.5140    34.0640    41.3630 S             1 RES     
    2971 S           39.5140    31.3390    33.1870 S             1 RES     
    2972 S           36.7890    34.0640    33.1870 S             1 RES     
    2973 S           39.5140    34.0640    35.9120 S             1 RES     
    2974 S            9.5380    -1.3630    35.9120 S             1 RES     
    2975 S            9.5380    39.5140    38.6370 S             1 RES     
    2976 S           -1.3630     9.5380    35.9120 S             1 RES     
    2977 S           39.5140     9.5380    38.6370 S             1 RES     
    2978 S            9.5380     4.0880    41.3630 S             1 RES     
    2979 S            9.5380     1.3630    33.1870 S             1 RES     
    2980 S            6.8130     4.0880    33.1870 S             1 RES     
    2981 S           34.0640     4.0880    33.1870 S             1 RES     
    2982 S            4.0880     9.5380    41.3630 S             1 RES     
    2983 S            4.0880     6.8130    33.1870 S             1 RES     
    2984 S            1.3630     9.5380    33.1870 S             1 RES     
    2985 S            4.0880    34.0640    33.1870 S             1 RES     
    2986 S            9.5380    -1.3630    41.3630 S             1 RES     
    2987 S           12.2630    -1.3630    38.6370 S             1 RES     
    2988 S           12.2630     1.3630    41.3630 S             1 RES     
    2989 S           12.2630    -1.3630    33.1870 S             1 RES     
    2990 S            9.5380    36.7890    41.3630 S             1 RES     
    2991 S           12.2630    39.5140    41.3630 S             1 RES     
    2992 S           12.2630    36.7890    33.1870 S             1 RES     
    2993 S            9.5380    39.5140    33.1870 S             1 RES     
    2994 S           12.2630    39.5140    35.9120 S             1 RES     
    2995 S           25.8890    -1.3630    41.3630 S             1 RES     
    2996 S           28.6140    -1.3630    38.6370 S             1 RES     
    2997 S           28.6140     1.3630    41.3630 S             1 RES     
    2998 S           25.8890    -1.3630    35.9120 S             1 RES     
    2999 S           28.6140    -1.3630    33.1870 S             1 RES     
    3000 S           25.8890     1.3630    33.1870 S             1 RES     
    3001 S           25.8890    36.7890    41.3630 S             1 RES     
    3002 S           25.8890    39.5140    38.6370 S             1 RES     
    3003 S           28.6140    39.5140    41.3630 S             1 RES     
    3004 S           28.6140    36.7890    33.1870 S             1 RES     
    3005 S           25.8890    39.5140    33.1870 S             1 RES     
    3006 S           28.6140    39.5140    35.9120 S             1 RES     
    3007 S           -1.3630     9.5380    41.3630 S             1 RES     
    3008 S           -1.3630    12.2630    38.6370 S             1 RES     
    3009 S            1.3630    12.2630    41.3630 S             1 RES     
    3010 S           -1.3630    12.2630    33.1870 S             1 RES     
    3011 S           36.7890     9.5380    41.3630 S             1 RES     
    3012 S           39.5140    12.2630    41.3630 S             1 RES     
    3013 S           39.5140     9.5380    33.1870 S             1 RES     
    3014 S           36.7890    12.2630    33.1870 S             1 RES     
    3015 S           39.5140    12.2630    35.9120 S             1 RES     
    3016 S           -1.3630    25.8890    41.3630 S             1 RES     
    3017 S           -1.3630    28.6140    38.6370 S             1 RES     
    3018 S            1.3630    28.6140    41.3630 S             1 RES     
    3019 S           -1.3630    25.8890    35.9120 S             1 RES     
    3020 S            1.3630    25.8890    33.1870 S             1 RES     
    3021 S           -1.3630    28.6140    33.1870 S             1 RES     
    3022 S           36.7890    25.8890    41.3630 S             1 RES     
    3023 S           39.5140    25.8890    38.6370 S             1 RES     
    3024 S           39.5140    28.6140    41.3630 S             1 RES     
    3025 S           39.5140    25.8890    33.1870 S             1 RES     
    3026 S           36.7890    28.6140    33.1870 S             1 RES     
    3027 S           39.5140    28.6140    35.9120 S             1 RES     
    3028 S           14.9880    -1.3630    35.9120 S             1 RES     
    3029 S           14.9880    39.5140    38.6370 S             1 RES     
    3030 S           -1.3630    14.9880    35.9120 S             1 RES     
    3031 S           39.5140    14.9880    38.6370 S             1 RES     
    3032 S           14.9880     4.0880    41.3630 S             1 RES     
    3033 S           14.9880     1.3630    33.1870 S             1 RES     
    3034 S           12.2630     4.0880    33.1870 S             1 RES     
    3035 S           31.3390     4.0880    41.3630 S             1 RES     
    3036 S           28.6140     4.0880    33.1870 S             1 RES     
    3037 S            4.0880    14.9880    41.3630 S             1 RES     
    3038 S            4.0880    12.2630    33.1870 S             1 RES     
    3039 S            1.3630    14.9880    33.1870 S             1 RES     
    3040 S            4.0880    31.3390    41.3630 S             1 RES     
    3041 S            4.0880    28.6140    33.1870 S             1 RES     
    3042 S           14.9880    -1.3630    41.3630 S             1 RES     
    3043 S           17.7130    -1.3630    38.6370 S             1 RES     
    3044 S           17.7130     1.3630    41.3630 S             1 RES     
    3045 S           17.7130    -1.3630    33.1870 S             1 RES     
    3046 S           14.9880    36.7890    41.3630 S             1 RES     
    3047 S           17.7130    39.5140    41.3630 S             1 RES     
    3048 S           17.7130    36.7890    33.1870 S             1 RES     
    3049 S           14.9880    39.5140    33.1870 S             1 RES     
    3050 S           17.7130    39.5140    35.9120 S             1 RES     
    3051 S           20.4390    -1.3630    41.3630 S             1 RES     
    3052 S           23.1640    -1.3630    38.6370 S             1 RES     
    3053 S           23.1640     1.3630    41.3630 S             1 RES     
    3054 S           20.4390    -1.3630    35.9120 S             1 RES     
    3055 S           23.1640    -1.3630    33.1870 S             1 RES     
    3056 S           20.4390     1.3630    33.1870 S             1 RES     
    3057 S           20.4390    36.7890    41.3630 S             1 RES     
    3058 S           20.4390    39.5140    38.6370 S             1 RES     
    3059 S           23.1640    39.5140    41.3630 S             1 RES     
    3060 S           23.1640    36.7890    33.1870 S             1 RES     
    3061 S           20.4390    39.5140    33.1870 S             1 RES     
    3062 S           23.1640    39.5140    35.9120 S             1 RES     
    3063 S           -1.3630    14.9880    41.3630 S             1 RES     
    3064 S           -1.3630    17.7130    38.6370 S             1 RES     
    3065 S            1.3630    17.7130    41.3630 S             1 RES     
    3066 S           -1.3630    17.7130    33.1870 S             1 RES     
    3067 S           36.7890    14.9880    41.3630 S             1 RES     
    3068 S           39.5140    17.7130    41.3630 S             1 RES     
    3069 S           39.5140    14.9880    33.1870 S             1 RES     
    3070 S           36.7890    17.7130    33.1870 S             1 RES     
    3071 S           39.5140    17.7130    35.9120 S             1 RES     
    3072 S           -1.3630    20.4390    41.3630 S             1 RES     
    3073 S           -1.3630    23.1640    38.6370 S             1 RES     
    3074 S            1.3630    23.1640    41.3630 S             1 RES     
    3075 S           -1.3630    20.4390    35.9120 S             1 RES     
    3076 S            1.3630    20.4390    33.1870 S             1 RES     
    3077 S           -1.3630    23.1640    33.1870 S             1 RES     
    3078 S           36.7890    20.4390    41.3630 S             1 RES     
    3079 S           39.5140    20.4390    38.6370 S             1 RES     
    3080 S           39.5140    23.1640    41.3630 S             1 RES     
    3081 S           39.5140    20.4390    33.1870 S             1 RES     
    3082 S           36.7890    23.1640    33.1870 S             1 RES     
    3083 S           39.5140    23.1640    35.9120 S             1 RES     
    3084 S           20.4390     4.0880    41.3630 S             1 RES     
    3085 S           17.7130     4.0880    33.1870 S             1 RES     
    3086 S           25.8890     4.0880    41.3630 S             1 RES     
    3087 S           23.1640     4.0880    33.1870 S             1 RES     
    3088 S            4.0880    20.4390    41.3630 S             1 RES     
    3089 S            4.0880    17.7130    33.1870 S             1 RES     
    3090 S            4.0880    25.8890    41.3630 S             1 RES     
    3091 S            4.0880    23.1640    33.1870 S             1 RES     
    3092 S            6.8130     6.8130    41.3630 S             1 RES     
    3093 S           31.3390    31.3390    41.3630 S             1 RES     
    3094 S           34.0640    34.0640    41.3630 S             1 RES     
    3095 S           34.0640    31.3390    33.1870 S             1 RES     
    3096 S           31.3390    34.0640    33.1870 S             1 RES     
    3097 S            6.8130    34.0640    41.3630 S             1 RES     
    3098 S            6.8130    31.3390    33.1870 S             1 RES     
    3099 S           34.0640     6.8130    41.3630 S             1 RES     
    3100 S           31.3390     6.8130    33.1870 S             1 RES     
    3101 S            9.5380     9.5380    41.3630 S             1 RES     
    3102 S            9.5380     6.8130    33.1870 S             1 RES     
    3103 S            6.8130     9.5380    33.1870 S             1 RES     
    3104 S            9.5380    34.0640    33.1870 S             1 RES     
    3105 S           34.0640     9.5380    33.1870 S             1 RES     
    3106 S           12.2630     6.8130    41.3630 S             1 RES     
    3107 S           25.8890    31.3390    41.3630 S             1 RES     
    3108 S           28.6140    34.0640    41.3630 S             1 RES     
    3109 S           28.6140    31.3390    33.1870 S             1 RES     
    3110 S           25.8890    34.0640    33.1870 S             1 RES     
    3111 S            9.5380    31.3390    41.3630 S             1 RES     
    3112 S           12.2630    34.0640    41.3630 S             1 RES     
    3113 S           12.2630    31.3390    33.1870 S             1 RES     
    3114 S           28.6140     6.8130    41.3630 S             1 RES     
    3115 S           25.8890     6.8130    33.1870 S             1 RES     
    3116 S            6.8130    12.2630    41.3630 S             1 RES     
    3117 S           31.3390    25.8890    41.3630 S             1 RES     
    3118 S           34.0640    28.6140    41.3630 S             1 RES     
    3119 S           34.0640    25.8890    33.1870 S             1 RES     
    3120 S           31.3390    28.6140    33.1870 S             1 RES     
    3121 S           31.3390     9.5380    41.3630 S             1 RES     
    3122 S           34.0640    12.2630    41.3630 S             1 RES     
    3123 S           31.3390    12.2630    33.1870 S             1 RES     
    3124 S            6.8130    28.6140    41.3630 S             1 RES     
    3125 S            6.8130    25.8890    33.1870 S             1 RES     
    3126 S           14.9880     9.5380    41.3630 S             1 RES     
    3127 S           14.9880     6.8130    33.1870 S             1 RES     
    3128 S           12.2630     9.5380    33.1870 S             1 RES     
    3129 S           14.9880    34.0640    33.1870 S             1 RES     
    3130 S           28.6140     9.5380    33.1870 S             1 RES     
    3131 S            9.5380    14.9880    41.3630 S             1 RES     
    3132 S            9.5380    12.2630    33.1870 S             1 RES     
    3133 S            6.8130    14.9880    33.1870 S             1 RES     
    3134 S           34.0640    14.9880    33.1870 S             1 RES     
    3135 S            9.5380    28.6140    33.1870 S             1 RES     
    3136 S           17.7130     6.8130    41.3630 S             1 RES     
    3137 S           20.4390    31.3390    41.3630 S             1 RES     
    3138 S           23.1640    34.0640    41.3630 S             1 RES     
    3139 S           23.1640    31.3390    33.1870 S             1 RES     
    3140 S           20.4390    34.0640    33.1870 S             1 RES     
    3141 S           14.9880    31.3390    41.3630 S             1 RES     
    3142 S           17.7130    34.0640    41.3630 S             1 RES     
    3143 S           17.7130    31.3390    33.1870 S             1 RES     
    3144 S           23.1640     6.8130    41.3630 S             1 RES     
    3145 S           20.4390     6.8130    33.1870 S             1 RES     
    3146 S            6.8130    17.7130    41.3630 S             1 RES     
    3147 S           31.3390    20.4390    41.3630 S             1 RES     
    3148 S           34.0640    23.1640    41.3630 S             1 RES     
    3149 S           34.0640    20.4390    33.1870 S             1 RES     
    3150 S           31.3390    23.1640    33.1870 S             1 RES     
    3151 S           31.3390    14.9880    41.3630 S             1 RES     
    3152 S           34.0640    17.7130    41.3630 S             1 RES     
    3153 S           31.3390    17.7130    33.1870 S             1 RES     
    3154 S            6.8130    23.1640    41.3630 S             1 RES     
    3155 S            6.8130    20.4390    33.1870 S             1 RES     
    3156 S           20.4390     9.5380    41.3630 S             1 RES     
    3157 S           17.7130     9.5380    33.1870 S             1 RES     
    3158 S           25.8890     9.5380    41.3630 S             1 RES     
    3159 S           23.1640     9.5380    33.1870 S             1 RES     
    3160 S            9.5380    20.4390    41.3630 S             1 RES     
    3161 S            9.5380    17.7130    33.1870 S             1 RES     
    3162 S            9.5380    25.8890    41.3630 S             1 RES     
    3163 S            9.5380    23.1640    33.1870 S             1 RES     
    3164 S           12.2630    12.2630    41.3630 S             1 RES     
    3165 S           25.8890    25.8890    41.3630 S             1 RES     
    3166 S           28.6140    28.6140    41.3630 S             1 RES     
    3167 S           28.6140    25.8890    33.1870 S             1 RES     
    3168 S           25.8890    28.6140    33.1870 S             1 RES     
    3169 S           12.2630    28.6140    41.3630 S             1 RES     
    3170 S           12.2630    25.8890    33.1870 S             1 RES     
    3171 S           28.6140    12.2630    41.3630 S             1 RES     
    3172 S           25.8890    12.2630    33.1870 S             1 RES     
    3173 S           14.9880    14.9880    41.3630 S             1 RES     
    3174 S           14.9880    12.2630    33.1870 S             1 RES     
    3175 S           12.2630    14.9880    33.1870 S             1 RES     
    3176 S           14.9880    28.6140    33.1870 S             1 RES     
    3177 S           28.6140    14.9880    33.1870 S             1 RES     
    3178 S           17.7130    12.2630    41.3630 S             1 RES     
    3179 S           20.4390    25.8890    41.3630 S             1 RES     
    3180 S           23.1640    28.6140    41.3630 S             1 RES     
    3181 S           23.1640    25.8890    33.1870 S             1 RES     
    3182 S           20.4390    28.6140    33.1870 S             1 RES     
    3183 S           14.9880    25.8890    41.3630 S             1 RES     
    3184 S           17.7130    28.6140    41.3630 S             1 RES     
    3185 S           17.7130    25.8890    33.1870 S             1 RES     
    3186 S           23.1640    12.2630    41.3630 S             1 RES     
    3187 S           20.4390    12.2630    33.1870 S             1 RES     
    3188 S           12.2630    17.7130    41.3630 S             1 RES     
    3189 S           25.8890    20.4390    41.3630 S             1 RES     
    3190 S           28.6140    23.1640    41.3630 S             1 RES     
    3191 S           28.6140    20.4390    33.1870 S             1 RES     
    3192 S           25.8890    23.1640    33.1870 S             1 RES     
    3193 S           25.8890    14.9880    41.3630 S             1 RES     
    3194 S           28.6140    17.7130    41.3630 S             1 RES     
    3195 S           25.8890    17.7130    33.1870 S             1 RES     
    3196 S           12.2630    23.1640    41.3630 S             1 RES     
    3197 S           12.2630    20.4390    33.1870 S             1 RES     
    3198 S           20.4390    14.9880    41.3630 S             1 RES     
    3199 S           17.7130    14.9880    33.1870 S             1 RES     
    3200 S           23.1640    14.9880    33.1870 S             1 RES     
    3201 S           14.9880    20.4390    41.3630 S             1 RES     
    3202 S           14.9880    17.7130    33.1870 S             1 RES     
    3203 S           14.9880    23.1640    33.1870 S             1 RES     
    3204 S           17.7130    17.7130    41.3630 S             1 RES     
    3205 S           20.4390    20.4390    41.3630 S             1 RES     
    3206 S           23.1640    23.1640    41.3630 S             1 RES     
    3207 S           23.1640    20.4390    33.1870 S             1 RES     
    3208 S           20.4390    23.1640    33.1870 S             1 RES     
    3209 S           17.7130    23.1640    41.3630 S             1 RES     
    3210 S           17.7130    20.4390    33.1870 S             1 RES     
    3211 S           23.1640    17.7130    41.3630 S             1 RES     
    3212 S           20.4390    17.7130    33.1870 S             1 RES     
    3213 C           23.0436    30.5154    18.0850 C             1 RES     
    3214 C           24.3877    30.4449    18.8101 C             1 RES     
    3215 C           24.4981    31.4630    19.9555 C             1 RES     
    3216 C           23.5656    31.1295    21.1333 C             1 RES     
    3217 C           23.8568    31.9853    22.3759 C             1 RES     
    3218 C           23.5109    33.4701    22.1630 C             1 RES     
    3219 C           23.5449    34.2751    23.4713 C             1 RES     
    3220 C           24.9726    34.4789    24.0010 C             1 RES     
    3221 C           24.9712    35.3395    25.2379 C             1 RES     
    3222 C           24.6840    34.9035    26.4793 C             1 RES     
    3223 C           24.3675    33.4712    26.8458 C             1 RES     
    3224 C           23.1531    33.3949    27.7795 C             1 RES     
    3225 C           21.8404    33.7213    27.0460 C             1 RES     
    3226 C           20.6394    33.8018    28.0112 C             1 RES     
    3227 C           20.2098    35.2435    28.3339 C             1 RES     
    3228 C           21.2717    36.0202    29.1249 C             1 RES     
    3229 C           20.7490    37.3987    29.5388 C             1 RES     
    3230 C           21.8010    38.1520    30.2895 C             1 RES     
    3231 O           21.8010    38.1520    31.5500 O             1 RES     
    3232 O           22.8048    38.8187    29.5935 O             1 RES     
    3233 H           22.2210    30.1800    18.7504 H             1 RES     
    3234 H           23.0665    29.8466    17.1990 H             1 RES     
    3235 H           22.8415    31.5518    17.7397 H             1 RES     
    3236 H           25.1926    30.6568    18.0733 H             1 RES     
    3237 H           24.5492    29.4151    19.1965 H             1 RES     
    3238 H           25.5507    31.4621    20.3140 H             1 RES     
    3239 H           24.2737    32.4788    19.5651 H             1 RES     
    3240 H           22.5048    31.2674    20.8331 H             1 RES     
    3241 H           23.7017    30.0623    21.4131 H             1 RES     
    3242 H           23.2474    31.5866    23.2166 H             1 RES     
    3243 H           24.9270    31.8758    22.6529 H             1 RES     
    3244 H           24.2115    33.9269    21.4313 H             1 RES     
    3245 H           22.4844    33.5458    21.7422 H             1 RES     
    3246 H           22.9109    33.7738    24.2317 H             1 RES     
    3247 H           23.0950    35.2735    23.2741 H             1 RES     
    3248 H           25.5696    34.9984    23.2205 H             1 RES     
    3249 H           25.4781    33.5133    24.2086 H             1 RES     
    3250 H           25.2425    36.3844    25.1179 H             1 RES     
    3251 H           24.7528    35.6216    27.2919 H             1 RES     
    3252 H           24.1864    32.8271    25.9622 H             1 RES     
    3253 H           25.2491    33.0553    27.3779 H             1 RES     
    3254 H           23.3052    34.0772    28.6426 H             1 RES     
    3255 H           23.0854    32.3620    28.1855 H             1 RES     
    3256 H           21.9393    34.6679    26.4715 H             1 RES     
    3257 H           21.6492    32.9132    26.3057 H             1 RES     
    3258 H           20.8404    33.2468    28.9542 H             1 RES     
    3259 H           19.7723    33.2987    27.5293 H             1 RES     
    3260 H           19.2747    35.1962    28.9341 H             1 RES     
    3261 H           19.9756    35.7824    27.3893 H             1 RES     
    3262 H           21.5511    35.4444    30.0350 H             1 RES     
    3263 H           22.1761    36.1571    28.4932 H             1 RES     
    3264 H           20.4654    37.9806    28.6351 H             1 RES     
    3265 H           19.8452    37.2853    30.1773 H             1 RES     
    3266 H           23.5388    39.3135    30.0860 H             1 RES     
    3267 C           20.3186    11.4394    18.0850 C             1 RES     
    3268 C           21.6627    11.3689    18.8101 C             1 RES     
    3269 C           21.7731    12.3870    19.9555 C             1 RES     
    3270 C           20.8406    12.0535    21.1333 C             1 RES     
    3271 C           21.1318    12.9093    22.3759 C             1 RES     
    3272 C           20.7859    14.3941    22.1630 C             1 RES     
    3273 C           20.8199    15.1991    23.4713 C             1 RES     
    3274 C           22.2476    15.4029    24.0010 C             1 RES     
    3275 C           22.2462    16.2635    25.2379 C             1 RES     
    3276 C           21.9590    15.8275    26.4793 C             1 RES     
    3277 C           21.6425    14.3952    26.8458 C             1 RES     
    3278 C           20.4281    14.3189    27.7795 C             1 RES     
    3279 C           19.1154    14.6453    27.0460 C             1 RES     
    3280 C           17.9144    14.7258    28.0112 C             1 RES     
    3281 C           17.4848    16.1675    28.3339 C             1 RES     
    3282 C           18.5467    16.9442    29.1249 C             1 RES     
    3283 C           18.0240    18.3227    29.5388 C             1 RES     
    3284 C           19.0760    19.0760    30.2895 C             1 RES     
    3285 O           19.0760    19.0760    31.5500 O             1 RES     
    3286 O           20.0798    19.7427    29.5935 O             1 RES     
    3287 H           19.4960    11.1040    18.7504 H             1 RES     
    3288 H           20.3415    10.7706    17.1990 H             1 RES     
    3289 H           20.1165    12.4758    17.7397 H             1 RES     
    3290 H           22.4676    11.5808    18.0733 H             1 RES     
    3291 H           21.8242    10.3391    19.1965 H             1 RES     
    3292 H           22.8257    12.3861    20.3140 H             1 RES     
    3293 H           21.5487    13.4028    19.5651 H             1 RES     
    3294 H           19.7798    12.1914    20.8331 H             1 RES     
    3295 H           20.9767    10.9863    21.4131 H             1 RES     
    3296 H           20.5224    12.5106    23.2166 H             1 RES     
    3297 H           22.2020    12.7998    22.6529 H             1 RES     
    3298 H           21.4865    14.8509    21.4313 H             1 RES     
    3299 H           19.7594    14.4698    21.7422 H             1 RES     
    3300 H           20.1859    14.6978    24.2317 H             1 RES     
    3301 H           20.3700    16.1975    23.2741 H             1 RES     
    3302 H           22.8446    15.9224    23.2205 H             1 RES     
    3303 H           22.7531    14.4373    24.2086 H             1 RES     
    3304 H           22.5175    17.3084    25.1179 H             1 RES     
    3305 H           22.0278    16.5456    27.2919 H             1 RES     
    3306 H           21.4614    13.7511    25.9622 H             1 RES     
    3307 H           22.5241    13.9793    27.3779 H             1 RES     
    3308 H           20.5802    15.0012    28.6426 H             1 RES     
    3309 H           20.3604    13.2860    28.1855 H             1 RES     
    3310 H           19.2143    15.5919    26.4715 H             1 RES     
    3311 H           18.9242    13.8372    26.3057 H             1 RES     
    3312 H           18.1154    14.1708    28.9542 H             1 RES     
    3313 H           17.0473    14.2227    27.5293 H             1 RES     
    3314 H           16.5497    16.1202    28.9341 H             1 RES     
    3315 H           17.2506    16.7064    27.3893 H             1 RES     
    3316 H           18.8261    16.3684    30.0350 H             1 RES     
    3317 H           19.4511    17.0811    28.4932 H             1 RES     
    3318 H           17.7404    18.9046    28.6351 H             1 RES     
    3319 H           17.1202    18.2093    30.1773 H             1 RES     
    3320 H           20.8138    20.2375    30.0860 H             1 RES     
    3321 C           33.9446    14.1644    18.0850 C             1 RES     
    3322 C           35.2887    14.0939    18.8101 C             1 RES     
    3323 C           35.3991    15.1120    19.9555 C             1 RES     
    3324 C           34.4666    14.7785    21.1333 C             1 RES     
    3325 C           34.7578    15.6343    22.3759 C             1 RES     
    3326 C           34.4119    17.1191    22.1630 C             1 RES     
    3327 C           34.4459    17.9241    23.4713 C             1 RES     
    3328 C           35.8736    18.1279    24.0010 C             1 RES     
    3329 C           35.8722    18.9885    25.2379 C             1 RES     
    3330 C           35.5850    18.5525    26.4793 C             1 RES     
    3331 C           35.2685    17.1202    26.8458 C             1 RES     
    3332 C           34.0541    17.0439    27.7795 C             1 RES     
    3333 C           32.7414    17.3703    27.0460 C             1 RES     
    3334 C           31.5404    17.4508    28.0112 C             1 RES     
    3335 C           31.1108    18.8925    28.3339 C             1 RES     
    3336 C           32.1727    19.6692    29.1249 C             1 RES     
    3337 C           31.6500    21.0477    29.5388 C             1 RES     
    3338 C           32.7020    21.8010    30.2895 C             1 RES     
    3339 O           32.7020    21.8010    31.5500 O             1 RES     
    3340 O           33.7058    22.4677    29.5935 O             1 RES     
    3341 H           33.1220    13.8290    18.7504 H             1 RES     
    3342 H           33.9675    13.4956    17.1990 H             1 RES     
    3343 H           33.7425    15.2008    17.7397 H             1 RES     
    3344 H           36.0936    14.3058    18.0733 H             1 RES     
    3345 H           35.4502    13.0641    19.1965 H             1 RES     
    3346 H           36.4517    15.1111    20.3140 H             1 RES     
    3347 H           35.1747    16.1278    19.5651 H             1 RES     
    3348 H           33.4058    14.9164    20.8331 H             1 RES     
    3349 H           34.6027    13.7113    21.4131 H             1 RES     
    3350 H           34.1484    15.2356    23.2166 H             1 RES     
    3351 H           35.8280    15.5248    22.6529 H             1 RES     
    3352 H           35.1125    17.5759    21.4313 H             1 RES     
    3353 H           33.3854    17.1948    21.7422 H             1 RES     
    3354 H           33.8119    17.4228    24.2317 H             1 RES     
    3355 H           33.9960    18.9225    23.2741 H             1 RES     
    3356 H           36.4706    18.6474    23.2205 H             1 RES     
    3357 H           36.3791    17.1623    24.2086 H             1 RES     
    3358 H           36.1435    20.0334    25.1179 H             1 RES     
    3359 H           35.6538    19.2706    27.2919 H             1 RES     
    3360 H           35.0874    16.4761    25.9622 H             1 RES     
    3361 H           36.1501    16.7043    27.3779 H             1 RES     
    3362 H           34.2062    17.7262    28.6426 H             1 RES     
    3363 H           33.9864    16.0110    28.1855 H             1 RES     
    3364 H           32.8403    18.3169    26.4715 H             1 RES     
    3365 H           32.5502    16.5622    26.3057 H             1 RES     
    3366 H           31.7414    16.8958    28.9542 H             1 RES     
    3367 H           30.6733    16.9477    27.5293 H             1 RES     
    3368 H           30.1757    18.8452    28.9341 H             1 RES     
    3369 H           30.8766    19.4314    27.3893 H             1 RES     
    3370 H           32.4521    19.0934    30.0350 H             1 RES     
    3371 H           33.0771    19.8061    28.4932 H             1 RES     
    3372 H           31.3664    21.6296    28.6351 H             1 RES     
    3373 H           30.7462    20.9343    30.1773 H             1 RES     
    3374 H           34.4398    22.9625    30.0860 H             1 RES     
    3375 C           20.3186     0.5384    18.0850 C             1 RES     
    3376 C           21.6627     0.4679    18.8101 C             1 RES     
    3377 C           21.7731     1.4860    19.9555 C             1 RES     
    3378 C           20.8406     1.1525    21.1333 C             1 RES     
    3379 C           21.1318     2.0083    22.3759 C             1 RES     
    3380 C           20.7859     3.4931    22.1630 C             1 RES     
    3381 C           20.8199     4.2981    23.4713 C             1 RES     
    3382 C           22.2476     4.5019    24.0010 C             1 RES     
    3383 C           22.2462     5.3625    25.2379 C             1 RES     
    3384 C           21.9590     4.9265    26.4793 C             1 RES     
    3385 C           21.6425     3.4942    26.8458 C             1 RES     
    3386 C           20.4281     3.4179    27.7795 C             1 RES     
    3387 C           19.1154     3.7443    27.0460 C             1 RES     
    3388 C           17.9144     3.8248    28.0112 C             1 RES     
    3389 C           17.4848     5.2665    28.3339 C             1 RES     
    3390 C           18.5467     6.0432    29.1249 C             1 RES     
    3391 C           18.0240     7.4217    29.5388 C             1 RES     
    3392 C           19.0760     8.1750    30.2895 C             1 RES     
    3393 O           19.0760     8.1750    31.5500 O             1 RES     
    3394 O           20.0798     8.8417    29.5935 O             1 RES     
    3395 H           19.4960     0.2030    18.7504 H             1 RES     
    3396 H           20.3415    -0.1304    17.1990 H             1 RES     
    3397 H           20.1165     1.5748    17.7397 H             1 RES     
    3398 H           22.4676     0.6798    18.0733 H             1 RES     
    3399 H           21.8242    -0.5619    19.1965 H             1 RES     
    3400 H           22.8257     1.4851    20.3140 H             1 RES     
    3401 H           21.5487     2.5018    19.5651 H             1 RES     
    3402 H           19.7798     1.2904    20.8331 H             1 RES     
    3403 H           20.9767     0.0853    21.4131 H             1 RES     
    3404 H           20.5224     1.6096    23.2166 H             1 RES     
    3405 H           22.2020     1.8988    22.6529 H             1 RES     
    3406 H           21.4865     3.9499    21.4313 H             1 RES     
    3407 H           19.7594     3.5688    21.7422 H             1 RES     
    3408 H           20.1859     3.7968    24.2317 H             1 RES     
    3409 H           20.3700     5.2965    23.2741 H             1 RES     
    3410 H           22.8446     5.0214    23.2205 H             1 RES     
    3411 H           22.7531     3.5363    24.2086 H             1 RES     
    3412 H           22.5175     6.4074    25.1179 H             1 RES     
    3413 H           22.0278     5.6446    27.2919 H             1 RES     
    3414 H           21.4614     2.8501    25.9622 H             1 RES     
    3415 H           22.5241     3.0783    27.3779 H             1 RES     
    3416 H           20.5802     4.1002    28.6426 H             1 RES     
    3417 H           20.3604     2.3850    28.1855 H             1 RES     
    3418 H           19.2143     4.6909    26.4715 H             1 RES     
    3419 H           18.9242     2.9362    26.3057 H             1 RES     
    3420 H           18.1154     3.2698    28.9542 H             1 RES     
    3421 H           17.0473     3.3217    27.5293 H             1 RES     
    3422 H           16.5497     5.2192    28.9341 H             1 RES     
    3423 H           17.2506     5.8054    27.3893 H             1 RES     
    3424 H           18.8261     5.4674    30.0350 H             1 RES     
    3425 H           19.4511     6.1801    28.4932 H             1 RES     
    3426 H           17.7404     8.0036    28.6351 H             1 RES     
    3427 H           17.1202     7.3083    30.1773 H             1 RES     
    3428 H           20.8138     9.3365    30.0860 H             1 RES     
    3429 C            3.9676    11.4394    18.0850 C             1 RES     
    3430 C            5.3117    11.3689    18.8101 C             1 RES     
    3431 C            5.4221    12.3870    19.9555 C             1 RES     
    3432 C            4.4896    12.0535    21.1333 C             1 RES     
    3433 C            4.7808    12.9093    22.3759 C             1 RES     
    3434 C            4.4349    14.3941    22.1630 C             1 RES     
    3435 C            4.4689    15.1991    23.4713 C             1 RES     
    3436 C            5.8966    15.4029    24.0010 C             1 RES     
    3437 C            5.8952    16.2635    25.2379 C             1 RES     
    3438 C            5.6080    15.8275    26.4793 C             1 RES     
    3439 C            5.2915    14.3952    26.8458 C             1 RES     
    3440 C            4.0771    14.3189    27.7795 C             1 RES     
    3441 C            2.7644    14.6453    27.0460 C             1 RES     
    3442 C            1.5634    14.7258    28.0112 C             1 RES     
    3443 C            1.1338    16.1675    28.3339 C             1 RES     
    3444 C            2.1957    16.9442    29.1249 C             1 RES     
    3445 C            1.6730    18.3227    29.5388 C             1 RES     
    3446 C            2.7250    19.0760    30.2895 C             1 RES     
    3447 O            2.7250    19.0760    31.5500 O             1 RES     
    3448 O            3.7288    19.7427    29.5935 O             1 RES     
    3449 H            3.1450    11.1040    18.7504 H             1 RES     
    3450 H            3.9905    10.7706    17.1990 H             1 RES     
    3451 H            3.7655    12.4758    17.7397 H             1 RES     
    3452 H            6.1166    11.5808    18.0733 H             1 RES     
    3453 H            5.4732    10.3391    19.1965 H             1 RES     
    3454 H            6.4747    12.3861    20.3140 H             1 RES     
    3455 H            5.1977    13.4028    19.5651 H             1 RES     
    3456 H            3.4288    12.1914    20.8331 H             1 RES     
    3457 H            4.6257    10.9863    21.4131 H             1 RES     
    3458 H            4.1714    12.5106    23.2166 H             1 RES     
    3459 H            5.8510    12.7998    22.6529 H             1 RES     
    3460 H            5.1355    14.8509    21.4313 H             1 RES     
    3461 H            3.4084    14.4698    21.7422 H             1 RES     
    3462 H            3.8349    14.6978    24.2317 H             1 RES     
    3463 H            4.0190    16.1975    23.2741 H             1 RES     
    3464 H            6.4936    15.9224    23.2205 H             1 RES     
    3465 H            6.4021    14.4373    24.2086 H             1 RES     
    3466 H            6.1665    17.3084    25.1179 H             1 RES     
    3467 H            5.6768    16.5456    27.2919 H             1 RES     
    3468 H            5.1104    13.7511    25.9622 H             1 RES     
    3469 H            6.1731    13.9793    27.3779 H             1 RES     
    3470 H            4.2292    15.0012    28.6426 H             1 RES     
    3471 H            4.0094    13.2860    28.1855 H             1 RES     
    3472 H            2.8633    15.5919    26.4715 H             1 RES     
    3473 H            2.5732    13.8372    26.3057 H             1 RES     
    3474 H            1.7644    14.1708    28.9542 H             1 RES     
    3475 H            0.6963    14.2227    27.5293 H             1 RES     
    3476 H            0.1987    16.1202    28.9341 H             1 RES     
    3477 H            0.8996    16.7064    27.3893 H             1 RES     
    3478 H            2.4751    16.3684    30.0350 H             1 RES     
    3479 H            3.1001    17.0811    28.4932 H             1 RES     
    3480 H            1.3894    18.9046    28.6351 H             1 RES     
    3481 H            0.7692    18.2093    30.1773 H             1 RES     
    3482 H            4.4628    20.2375    30.0860 H             1 RES     
    3483 C            3.9676    27.7904    18.0850 C             1 RES     
    3484 C            5.3117    27.7199    18.8101 C             1 RES     
    3485 C            5.4221    28.7380    19.9555 C             1 RES     
    3486 C            4.4896    28.4045    21.1333 C             1 RES     
    3487 C            4.7808    29.2603    22.3759 C             1 RES     
    3488 C            4.4349    30.7451    22.1630 C             1 RES     
    3489 C            4.4689    31.5501    23.4713 C             1 RES     
    3490 C            5.8966    31.7539    24.0010 C             1 RES     
    3491 C            5.8952    32.6145    25.2379 C             1 RES     
    3492 C            5.6080    32.1785    26.4793 C             1 RES     
    3493 C            5.2915    30.7462    26.8458 C             1 RES     
    3494 C            4.0771    30.6699    27.7795 C             1 RES     
    3495 C            2.7644    30.9963    27.0460 C             1 RES     
    3496 C            1.5634    31.0768    28.0112 C             1 RES     
    3497 C            1.1338    32.5185    28.3339 C             1 RES     
    3498 C            2.1957    33.2952    29.1249 C             1 RES     
    3499 C            1.6730    34.6737    29.5388 C             1 RES     
    3500 C            2.7250    35.4270    30.2895 C             1 RES     
    3501 O            2.7250    35.4270    31.5500 O             1 RES     
    3502 O            3.7288    36.0937    29.5935 O             1 RES     
    3503 H            3.1450    27.4550    18.7504 H             1 RES     
    3504 H            3.9905    27.1216    17.1990 H             1 RES     
    3505 H            3.7655    28.8268    17.7397 H             1 RES     
    3506 H            6.1166    27.9318    18.0733 H             1 RES     
    3507 H            5.4732    26.6901    19.1965 H             1 RES     
    3508 H            6.4747    28.7371    20.3140 H             1 RES     
    3509 H            5.1977    29.7538    19.5651 H             1 RES     
    3510 H            3.4288    28.5424    20.8331 H             1 RES     
    3511 H            4.6257    27.3373    21.4131 H             1 RES     
    3512 H            4.1714    28.8616    23.2166 H             1 RES     
    3513 H            5.8510    29.1508    22.6529 H             1 RES     
    3514 H            5.1355    31.2019    21.4313 H             1 RES     
    3515 H            3.4084    30.8208    21.7422 H             1 RES     
    3516 H            3.8349    31.0488    24.2317 H             1 RES     
    3517 H            4.0190    32.5485    23.2741 H             1 RES     
    3518 H            6.4936    32.2734    23.2205 H             1 RES     
    3519 H            6.4021    30.7883    24.2086 H             1 RES     
    3520 H            6.1665    33.6594    25.1179 H             1 RES     
    3521 H            5.6768    32.8966    27.2919 H             1 RES     
    3522 H            5.1104    30.1021    25.9622 H             1 RES     
    3523 H            6.1731    30.3303    27.3779 H             1 RES     
    3524 H            4.2292    31.3522    28.6426 H             1 RES     
    3525 H            4.0094    29.6370    28.1855 H             1 RES     
    3526 H            2.8633    31.9429    26.4715 H             1 RES     
    3527 H            2.5732    30.1882    26.3057 H             1 RES     
    3528 H            1.7644    30.5218    28.9542 H             1 RES     
    3529 H            0.6963    30.5737    27.5293 H             1 RES     
    3530 H            0.1987    32.4712    28.9341 H             1 RES     
    3531 H            0.8996    33.0574    27.3893 H             1 RES     
    3532 H            2.4751    32.7194    30.0350 H             1 RES     
    3533 H            3.1001    33.4321    28.4932 H             1 RES     
    3534 H            1.3894    35.2556    28.6351 H             1 RES     
    3535 H            0.7692    34.5603    30.1773 H             1 RES     
    3536 H            4.4628    36.5885    30.0860 H             1 RES     
    3537 C            1.2426    19.6144    18.0850 C             1 RES     
    3538 C            2.5867    19.5439    18.8101 C             1 RES     
    3539 C            2.6971    20.5620    19.9555 C             1 RES     
    3540 C            1.7646    20.2285    21.1333 C             1 RES     
    3541 C            2.0558    21.0843    22.3759 C             1 RES     
    3542 C            1.7099    22.5691    22.1630 C             1 RES     
    3543 C            1.7439    23.3741    23.4713 C             1 RES     
    3544 C            3.1716    23.5779    24.0010 C             1 RES     
    3545 C            3.1702    24.4385    25.2379 C             1 RES     
    3546 C            2.8830    24.0025    26.4793 C             1 RES     
    3547 C            2.5665    22.5702    26.8458 C             1 RES     
    3548 C            1.3521    22.4939    27.7795 C             1 RES     
    3549 C            0.0394    22.8203    27.0460 C             1 RES     
    3550 C           -1.1616    22.9008    28.0112 C             1 RES     
    3551 C           -1.5912    24.3425    28.3339 C             1 RES     
    3552 C           -0.5293    25.1192    29.1249 C             1 RES     
    3553 C           -1.0520    26.4977    29.5388 C             1 RES     
    3554 C           -0.0000    27.2510    30.2895 C             1 RES     
    3555 O           -0.0000    27.2510    31.5500 O             1 RES     
    3556 O            1.0038    27.9177    29.5935 O             1 RES     
    3557 H            0.4200    19.2790    18.7504 H             1 RES     
    3558 H            1.2655    18.9456    17.1990 H             1 RES     
    3559 H            1.0405    20.6508    17.7397 H             1 RES     
    3560 H            3.3916    19.7558    18.0733 H             1 RES     
    3561 H            2.7482    18.5141    19.1965 H             1 RES     
    3562 H            3.7497    20.5611    20.3140 H             1 RES     
    3563 H            2.4727    21.5778    19.5651 H             1 RES     
    3564 H            0.7038    20.3664    20.8331 H             1 RES     
    3565 H            1.9007    19.1613    21.4131 H             1 RES     
    3566 H            1.4464    20.6856    23.2166 H             1 RES     
    3567 H            3.1260    20.9748    22.6529 H             1 RES     
    3568 H            2.4105    23.0259    21.4313 H             1 RES     
    3569 H            0.6834    22.6448    21.7422 H             1 RES     
    3570 H            1.1099    22.8728    24.2317 H             1 RES     
    3571 H            1.2940    24.3725    23.2741 H             1 RES     
    3572 H            3.7686    24.0974    23.2205 H             1 RES     
    3573 H            3.6771    22.6123    24.2086 H             1 RES     
    3574 H            3.4415    25.4834    25.1179 H             1 RES     
    3575 H            2.9518    24.7206    27.2919 H             1 RES     
    3576 H            2.3854    21.9261    25.9622 H             1 RES     
    3577 H            3.4481    22.1543    27.3779 H             1 RES     
    3578 H            1.5042    23.1762    28.6426 H             1 RES     
    3579 H            1.2844    21.4610    28.1855 H             1 RES     
    3580 H            0.1383    23.7669    26.4715 H             1 RES     
    3581 H           -0.1518    22.0122    26.3057 H             1 RES     
    3582 H           -0.9606    22.3458    28.9542 H             1 RES     
    3583 H           -2.0287    22.3977    27.5293 H             1 RES     
    3584 H           -2.5263    24.2952    28.9341 H             1 RES     
    3585 H           -1.8254    24.8814    27.3893 H             1 RES     
    3586 H           -0.2499    24.5434    30.0350 H             1 RES     
    3587 H            0.3751    25.2561    28.4932 H             1 RES     
    3588 H           -1.3356    27.0796    28.6351 H             1 RES     
    3589 H           -1.9558    26.3843    30.1773 H             1 RES     
    3590 H            1.7378    28.4125    30.0860 H             1 RES     
    3591 C           23.0436    14.1644    18.0850 C             1 RES     
    3592 C           24.3877    14.0939    18.8101 C             1 RES     
    3593 C           24.4981    15.1120    19.9555 C             1 RES     
    3594 C           23.5656    14.7785    21.1333 C             1 RES     
    3595 C           23.8568    15.6343    22.3759 C             1 RES     
    3596 C           23.5109    17.1191    22.1630 C             1 RES     
    3597 C           23.5449    17.9241    23.4713 C             1 RES     
    3598 C           24.9726    18.1279    24.0010 C             1 RES     
    3599 C           24.9712    18.9885    25.2379 C             1 RES     
    3600 C           24.6840    18.5525    26.4793 C             1 RES     
    3601 C           24.3675    17.1202    26.8458 C             1 RES     
    3602 C           23.1531    17.0439    27.7795 C             1 RES     
    3603 C           21.8404    17.3703    27.0460 C             1 RES     
    3604 C           20.6394    17.4508    28.0112 C             1 RES     
    3605 C           20.2098    18.8925    28.3339 C             1 RES     
    3606 C           21.2717    19.6692    29.1249 C             1 RES     
    3607 C           20.7490    21.0477    29.5388 C             1 RES     
    3608 C           21.8010    21.8010    30.2895 C             1 RES     
    3609 O           21.8010    21.8010    31.5500 O             1 RES     
    3610 O           22.8048    22.4677    29.5935 O             1 RES     
    3611 H           22.2210    13.8290    18.7504 H             1 RES     
    3612 H           23.0665    13.4956    17.1990 H             1 RES     
    3613 H           22.8415    15.2008    17.7397 H             1 RES     
    3614 H           25.1926    14.3058    18.0733 H             1 RES     
    3615 H           24.5492    13.0641    19.1965 H             1 RES     
    3616 H           25.5507    15.1111    20.3140 H             1 RES     
    3617 H           24.2737    16.1278    19.5651 H             1 RES     
    3618 H           22.5048    14.9164    20.8331 H             1 RES     
    3619 H           23.7017    13.7113    21.4131 H             1 RES     
    3620 H           23.2474    15.2356    23.2166 H             1 RES     
    3621 H           24.9270    15.5248    22.6529 H             1 RES     
    3622 H           24.2115    17.5759    21.4313 H             1 RES     
    3623 H           22.4844    17.1948    21.7422 H             1 RES     
    3624 H           22.9109    17.4228    24.2317 H             1 RES     
    3625 H           23.0950    18.9225    23.2741 H             1 RES     
    3626 H           25.5696    18.6474    23.2205 H             1 RES     
    3627 H           25.4781    17.1623    24.2086 H             1 RES     
    3628 H           25.2425    20.0334    25.1179 H             1 RES     
    3629 H           24.7528    19.2706    27.2919 H             1 RES     
    3630 H           24.1864    16.4761    25.9622 H             1 RES     
    3631 H           25.2491    16.7043    27.3779 H             1 RES     
    3632 H           23.3052    17.7262    28.6426 H             1 RES     
    3633 H           23.0854    16.0110    28.1855 H             1 RES     
    3634 H           21.9393    18.3169    26.4715 H             1 RES     
    3635 H           21.6492    16.5622    26.3057 H             1 RES     
    3636 H           20.8404    16.8958    28.9542 H             1 RES     
    3637 H           19.7723    16.9477    27.5293 H             1 RES     
    3638 H           19.2747    18.8452    28.9341 H             1 RES     
    3639 H           19.9756    19.4314    27.3893 H             1 RES     
    3640 H           21.5511    19.0934    30.0350 H             1 RES     
    3641 H           22.1761    19.8061    28.4932 H             1 RES     
    3642 H           20.4654    21.6296    28.6351 H             1 RES     
    3643 H           19.8452    20.9343    30.1773 H             1 RES     
    3644 H           23.5388    22.9625    30.0860 H             1 RES     
    3645 C           14.8686    22.3394    18.0850 C             1 RES     
    3646 C           16.2127    22.2689    18.8101 C             1 RES     
    3647 C           16.3231    23.2870    19.9555 C             1 RES     
    3648 C           15.3906    22.9535    21.1333 C             1 RES     
    3649 C           15.6818    23.8093    22.3759 C             1 RES     
    3650 C           15.3359    25.2941    22.1630 C             1 RES     
    3651 C           15.3699    26.0991    23.4713 C             1 RES     
    3652 C           16.7976    26.3029    24.0010 C             1 RES     
    3653 C           16.7962    27.1635    25.2379 C             1 RES     
    3654 C           16.5090    26.7275    26.4793 C             1 RES     
    3655 C           16.1925    25.2952    26.8458 C             1 RES     
    3656 C           14.9781    25.2189    27.7795 C             1 RES     
    3657 C           13.6654    25.5453    27.0460 C             1 RES     
    3658 C           12.4644    25.6258    28.0112 C             1 RES     
    3659 C           12.0348    27.0675    28.3339 C             1 RES     
    3660 C           13.0967    27.8442    29.1249 C             1 RES     
    3661 C           12.5740    29.2227    29.5388 C             1 RES     
    3662 C           13.6260    29.9760    30.2895 C             1 RES     
    3663 O           13.6260    29.9760    31.5500 O             1 RES     
    3664 O           14.6298    30.6427    29.5935 O             1 RES     
    3665 H           14.0460    22.0040    18.7504 H             1 RES     
    3666 H           14.8915    21.6706    17.1990 H             1 RES     
    3667 H           14.6665    23.3758    17.7397 H             1 RES     
    3668 H           17.0176    22.4808    18.0733 H             1 RES     
    3669 H           16.3742    21.2391    19.1965 H             1 RES     
    3670 H           17.3757    23.2861    20.3140 H             1 RES     
    3671 H           16.0987    24.3028    19.5651 H             1 RES     
    3672 H           14.3298    23.0914    20.8331 H             1 RES     
    3673 H           15.5267    21.8863    21.4131 H             1 RES     
    3674 H           15.0724    23.4106    23.2166 H             1 RES     
    3675 H           16.7520    23.6998    22.6529 H             1 RES     
    3676 H           16.0365    25.7509    21.4313 H             1 RES     
    3677 H           14.3094    25.3698    21.7422 H             1 RES     
    3678 H           14.7359    25.5978    24.2317 H             1 RES     
    3679 H           14.9200    27.0975    23.2741 H             1 RES     
    3680 H           17.3946    26.8224    23.2205 H             1 RES     
    3681 H           17.3031    25.3373    24.2086 H             1 RES     
    3682 H           17.0675    28.2084    25.1179 H             1 RES     
    3683 H           16.5778    27.4456    27.2919 H             1 RES     
    3684 H           16.0114    24.6511    25.9622 H             1 RES     
    3685 H           17.0741    24.8793    27.3779 H             1 RES     
    3686 H           15.1302    25.9012    28.6426 H             1 RES     
    3687 H           14.9104    24.1860    28.1855 H             1 RES     
    3688 H           13.7643    26.4919    26.4715 H             1 RES     
    3689 H           13.4742    24.7372    26.3057 H             1 RES     
    3690 H           12.6654    25.0708    28.9542 H             1 RES     
    3691 H           11.5973    25.1227    27.5293 H             1 RES     
    3692 H           11.0997    27.0202    28.9341 H             1 RES     
    3693 H           11.8006    27.6064    27.3893 H             1 RES     
    3694 H           13.3761    27.2684    30.0350 H             1 RES     
    3695 H           14.0011    27.9811    28.4932 H             1 RES     
    3696 H           12.2904    29.8046    28.6351 H             1 RES     
    3697 H           11.6702    29.1093    30.1773 H             1 RES     
    3698 H           15.3638    31.1375    30.0860 H             1 RES     
    3699 C           36.6696    -4.9116    18.0850 C             1 RES     
    3700 C           38.0137    -4.9821    18.8101 C             1 RES     
    3701 C           38.1241    -3.9640    19.9555 C             1 RES     
    3702 C           37.1916    -4.2975    21.1333 C             1 RES     
    3703 C           37.4828    -3.4417    22.3759 C             1 RES     
    3704 C           37.1369    -1.9569    22.1630 C             1 RES     
    3705 C           37.1709    -1.1519    23.4713 C             1 RES     
    3706 C           38.5986    -0.9481    24.0010 C             1 RES     
    3707 C           38.5972    -0.0875    25.2379 C             1 RES     
    3708 C           38.3100    -0.5235    26.4793 C             1 RES     
    3709 C           37.9935    -1.9558    26.8458 C             1 RES     
    3710 C           36.7791    -2.0321    27.7795 C             1 RES     
    3711 C           35.4664    -1.7057    27.0460 C             1 RES     
    3712 C           34.2654    -1.6252    28.0112 C             1 RES     
    3713 C           33.8358    -0.1835    28.3339 C             1 RES     
    3714 C           34.8977     0.5932    29.1249 C             1 RES     
    3715 C           34.3750     1.9717    29.5388 C             1 RES     
    3716 C           35.4270     2.7250    30.2895 C             1 RES     
    3717 O           35.4270     2.7250    31.5500 O             1 RES     
    3718 O           36.4308     3.3917    29.5935 O             1 RES     
    3719 H           35.8470    -5.2470    18.7504 H             1 RES     
    3720 H           36.6925    -5.5804    17.1990 H             1 RES     
    3721 H           36.4675    -3.8752    17.7397 H             1 RES     
    3722 H           38.8186    -4.7702    18.0733 H             1 RES     
    3723 H           38.1752    -6.0119    19.1965 H             1 RES     
    3724 H           39.1767    -3.9649    20.3140 H             1 RES     
    3725 H           37.8997    -2.9482    19.5651 H             1 RES     
    3726 H           36.1308    -4.1596    20.8331 H             1 RES     
    3727 H           37.3277    -5.3647    21.4131 H             1 RES     
    3728 H           36.8734    -3.8404    23.2166 H             1 RES     
    3729 H           38.5530    -3.5512    22.6529 H             1 RES     
    3730 H           37.8375    -1.5001    21.4313 H             1 RES     
    3731 H           36.1104    -1.8812    21.7422 H             1 RES     
    3732 H           36.5369    -1.6532    24.2317 H             1 RES     
    3733 H           36.7210    -0.1535    23.2741 H             1 RES     
    3734 H           39.1956    -0.4286    23.2205 H             1 RES     
    3735 H           39.1041    -1.9137    24.2086 H             1 RES     
    3736 H           38.8685     0.9574    25.1179 H             1 RES     
    3737 H           38.3788     0.1946    27.2919 H             1 RES     
    3738 H           37.8124    -2.5999    25.9622 H             1 RES     
    3739 H           38.8751    -2.3717    27.3779 H             1 RES     
    3740 H           36.9312    -1.3498    28.6426 H             1 RES     
    3741 H           36.7114    -3.0650    28.1855 H             1 RES     
    3742 H           35.5653    -0.7591    26.4715 H             1 RES     
    3743 H           35.2752    -2.5138    26.3057 H             1 RES     
    3744 H           34.4664    -2.1802    28.9542 H             1 RES     
    3745 H           33.3983    -2.1283    27.5293 H             1 RES     
    3746 H           32.9007    -0.2308    28.9341 H             1 RES     
    3747 H           33.6016     0.3554    27.3893 H             1 RES     
    3748 H           35.1771     0.0174    30.0350 H             1 RES     
    3749 H           35.8021     0.7301    28.4932 H             1 RES     
    3750 H           34.0914     2.5536    28.6351 H             1 RES     
    3751 H           33.4712     1.8583    30.1773 H             1 RES     
    3752 H           37.1648     3.8865    30.0860 H             1 RES     
    3753 C           28.4936    14.1644    18.0850 C             1 RES     
    3754 C           29.8377    14.0939    18.8101 C             1 RES     
    3755 C           29.9481    15.1120    19.9555 C             1 RES     
    3756 C           29.0156    14.7785    21.1333 C             1 RES     
    3757 C           29.3068    15.6343    22.3759 C             1 RES     
    3758 C           28.9609    17.1191    22.1630 C             1 RES     
    3759 C           28.9949    17.9241    23.4713 C             1 RES     
    3760 C           30.4226    18.1279    24.0010 C             1 RES     
    3761 C           30.4212    18.9885    25.2379 C             1 RES     
    3762 C           30.1340    18.5525    26.4793 C             1 RES     
    3763 C           29.8175    17.1202    26.8458 C             1 RES     
    3764 C           28.6031    17.0439    27.7795 C             1 RES     
    3765 C           27.2904    17.3703    27.0460 C             1 RES     
    3766 C           26.0894    17.4508    28.0112 C             1 RES     
    3767 C           25.6598    18.8925    28.3339 C             1 RES     
    3768 C           26.7217    19.6692    29.1249 C             1 RES     
    3769 C           26.1990    21.0477    29.5388 C             1 RES     
    3770 C           27.2510    21.8010    30.2895 C             1 RES     
    3771 O           27.2510    21.8010    31.5500 O             1 RES     
    3772 O           28.2548    22.4677    29.5935 O             1 RES     
    3773 H           27.6710    13.8290    18.7504 H             1 RES     
    3774 H           28.5165    13.4956    17.1990 H             1 RES     
    3775 H           28.2915    15.2008    17.7397 H             1 RES     
    3776 H           30.6426    14.3058    18.0733 H             1 RES     
    3777 H           29.9992    13.0641    19.1965 H             1 RES     
    3778 H           31.0007    15.1111    20.3140 H             1 RES     
    3779 H           29.7237    16.1278    19.5651 H             1 RES     
    3780 H           27.9548    14.9164    20.8331 H             1 RES     
    3781 H           29.1517    13.7113    21.4131 H             1 RES     
    3782 H           28.6974    15.2356    23.2166 H             1 RES     
    3783 H           30.3770    15.5248    22.6529 H             1 RES     
    3784 H           29.6615    17.5759    21.4313 H             1 RES     
    3785 H           27.9344    17.1948    21.7422 H             1 RES     
    3786 H           28.3609    17.4228    24.2317 H             1 RES     
    3787 H           28.5450    18.9225    23.2741 H             1 RES     
    3788 H           31.0196    18.6474    23.2205 H             1 RES     
    3789 H           30.9281    17.1623    24.2086 H             1 RES     
    3790 H           30.6925    20.0334    25.1179 H             1 RES     
    3791 H           30.2028    19.2706    27.2919 H             1 RES     
    3792 H           29.6364    16.4761    25.9622 H             1 RES     
    3793 H           30.6991    16.7043    27.3779 H             1 RES     
    3794 H           28.7552    17.7262    28.6426 H             1 RES     
    3795 H           28.5354    16.0110    28.1855 H             1 RES     
    3796 H           27.3893    18.3169    26.4715 H             1 RES     
    3797 H           27.0992    16.5622    26.3057 H             1 RES     
    3798 H           26.2904    16.8958    28.9542 H             1 RES     
    3799 H           25.2223    16.9477    27.5293 H             1 RES     
    3800 H           24.7247    18.8452    28.9341 H             1 RES     
    3801 H           25.4256    19.4314    27.3893 H             1 RES     
    3802 H           27.0011    19.0934    30.0350 H             1 RES     
    3803 H           27.6261    19.8061    28.4932 H             1 RES     
    3804 H           25.9154    21.6296    28.6351 H             1 RES     
    3805 H           25.2952    20.9343    30.1773 H             1 RES     
    3806 H           28.9888    22.9625    30.0860 H             1 RES     
    3807 C            3.9676     5.9894    18.0850 C             1 RES     
    3808 C            5.3117     5.9189    18.8101 C             1 RES     
    3809 C            5.4221     6.9370    19.9555 C             1 RES     
    3810 C            4.4896     6.6035    21.1333 C             1 RES     
    3811 C            4.7808     7.4593    22.3759 C             1 RES     
    3812 C            4.4349     8.9441    22.1630 C             1 RES     
    3813 C            4.4689     9.7491    23.4713 C             1 RES     
    3814 C            5.8966     9.9529    24.0010 C             1 RES     
    3815 C            5.8952    10.8135    25.2379 C             1 RES     
    3816 C            5.6080    10.3775    26.4793 C             1 RES     
    3817 C            5.2915     8.9452    26.8458 C             1 RES     
    3818 C            4.0771     8.8689    27.7795 C             1 RES     
    3819 C            2.7644     9.1953    27.0460 C             1 RES     
    3820 C            1.5634     9.2758    28.0112 C             1 RES     
    3821 C            1.1338    10.7175    28.3339 C             1 RES     
    3822 C            2.1957    11.4942    29.1249 C             1 RES     
    3823 C            1.6730    12.8727    29.5388 C             1 RES     
    3824 C            2.7250    13.6260    30.2895 C             1 RES     
    3825 O            2.7250    13.6260    31.5500 O             1 RES     
    3826 O            3.7288    14.2927    29.5935 O             1 RES     
    3827 H            3.1450     5.6540    18.7504 H             1 RES     
    3828 H            3.9905     5.3206    17.1990 H             1 RES     
    3829 H            3.7655     7.0258    17.7397 H             1 RES     
    3830 H            6.1166     6.1308    18.0733 H             1 RES     
    3831 H            5.4732     4.8891    19.1965 H             1 RES     
    3832 H            6.4747     6.9361    20.3140 H             1 RES     
    3833 H            5.1977     7.9528    19.5651 H             1 RES     
    3834 H            3.4288     6.7414    20.8331 H             1 RES     
    3835 H            4.6257     5.5363    21.4131 H             1 RES     
    3836 H            4.1714     7.0606    23.2166 H             1 RES     
    3837 H            5.8510     7.3498    22.6529 H             1 RES     
    3838 H            5.1355     9.4009    21.4313 H             1 RES     
    3839 H            3.4084     9.0198    21.7422 H             1 RES     
    3840 H            3.8349     9.2478    24.2317 H             1 RES     
    3841 H            4.0190    10.7475    23.2741 H             1 RES     
    3842 H            6.4936    10.4724    23.2205 H             1 RES     
    3843 H            6.4021     8.9873    24.2086 H             1 RES     
    3844 H            6.1665    11.8584    25.1179 H             1 RES     
    3845 H            5.6768    11.0956    27.2919 H             1 RES     
    3846 H            5.1104     8.3011    25.9622 H             1 RES     
    3847 H            6.1731     8.5293    27.3779 H             1 RES     
    3848 H            4.2292     9.5512    28.6426 H             1 RES     
    3849 H            4.0094     7.8360    28.1855 H             1 RES     
    3850 H            2.8633    10.1419    26.4715 H             1 RES     
    3851 H            2.5732     8.3872    26.3057 H             1 RES     
    3852 H            1.7644     8.7208    28.9542 H             1 RES     
    3853 H            0.6963     8.7727    27.5293 H             1 RES     
    3854 H            0.1987    10.6702    28.9341 H             1 RES     
    3855 H            0.8996    11.2564    27.3893 H             1 RES     
    3856 H            2.4751    10.9184    30.0350 H             1 RES     
    3857 H            3.1001    11.6311    28.4932 H             1 RES     
    3858 H            1.3894    13.4546    28.6351 H             1 RES     
    3859 H            0.7692    12.7593    30.1773 H             1 RES     
    3860 H            4.4628    14.7875    30.0860 H             1 RES     
    3861 C           33.9446     8.7144    18.0850 C             1 RES     
    3862 C           35.2887     8.6439    18.8101 C             1 RES     
    3863 C           35.3991     9.6620    19.9555 C             1 RES     
    3864 C           34.4666     9.3285    21.1333 C             1 RES     
    3865 C           34.7578    10.1843    22.3759 C             1 RES     
    3866 C           34.4119    11.6691    22.1630 C             1 RES     
    3867 C           34.4459    12.4741    23.4713 C             1 RES     
    3868 C           35.8736    12.6779    24.0010 C             1 RES     
    3869 C           35.8722    13.5385    25.2379 C             1 RES     
    3870 C           35.5850    13.1025    26.4793 C             1 RES     
    3871 C           35.2685    11.6702    26.8458 C             1 RES     
    3872 C           34.0541    11.5939    27.7795 C             1 RES     
    3873 C           32.7414    11.9203    27.0460 C             1 RES     
    3874 C           31.5404    12.0008    28.0112 C             1 RES     
    3875 C           31.1108    13.4425    28.3339 C             1 RES     
    3876 C           32.1727    14.2192    29.1249 C             1 RES     
    3877 C           31.6500    15.5977    29.5388 C             1 RES     
    3878 C           32.7020    16.3510    30.2895 C             1 RES     
    3879 O           32.7020    16.3510    31.5500 O             1 RES     
    3880 O           33.7058    17.0177    29.5935 O             1 RES     
    3881 H           33.1220     8.3790    18.7504 H             1 RES     
    3882 H           33.9675     8.0456    17.1990 H             1 RES     
    3883 H           33.7425     9.7508    17.7397 H             1 RES     
    3884 H           36.0936     8.8558    18.0733 H             1 RES     
    3885 H           35.4502     7.6141    19.1965 H             1 RES     
    3886 H           36.4517     9.6611    20.3140 H             1 RES     
    3887 H           35.1747    10.6778    19.5651 H             1 RES     
    3888 H           33.4058     9.4664    20.8331 H             1 RES     
    3889 H           34.6027     8.2613    21.4131 H             1 RES     
    3890 H           34.1484     9.7856    23.2166 H             1 RES     
    3891 H           35.8280    10.0748    22.6529 H             1 RES     
    3892 H           35.1125    12.1259    21.4313 H             1 RES     
    3893 H           33.3854    11.7448    21.7422 H             1 RES     
    3894 H           33.8119    11.9728    24.2317 H             1 RES     
    3895 H           33.9960    13.4725    23.2741 H             1 RES     
    3896 H           36.4706    13.1974    23.2205 H             1 RES     
    3897 H           36.3791    11.7123    24.2086 H             1 RES     
    3898 H           36.1435    14.5834    25.1179 H             1 RES     
    3899 H           35.6538    13.8206    27.2919 H             1 RES     
    3900 H           35.0874    11.0261    25.9622 H             1 RES     
    3901 H           36.1501    11.2543    27.3779 H             1 RES     
    3902 H           34.2062    12.2762    28.6426 H             1 RES     
    3903 H           33.9864    10.5610    28.1855 H             1 RES     
    3904 H           32.8403    12.8669    26.4715 H             1 RES     
    3905 H           32.5502    11.1122    26.3057 H             1 RES     
    3906 H           31.7414    11.4458    28.9542 H             1 RES     
    3907 H           30.6733    11.4977    27.5293 H             1 RES     
    3908 H           30.1757    13.3952    28.9341 H             1 RES     
    3909 H           30.8766    13.9814    27.3893 H             1 RES     
    3910 H           32.4521    13.6434    30.0350 H             1 RES     
    3911 H           33.0771    14.3561    28.4932 H             1 RES     
    3912 H           31.3664    16.1796    28.6351 H             1 RES     
    3913 H           30.7462    15.4843    30.1773 H             1 RES     
    3914 H           34.4398    17.5125    30.0860 H             1 RES     
    3915 C           14.8686    11.4394    18.0850 C             1 RES     
    3916 C           16.2127    11.3689    18.8101 C             1 RES     
    3917 C           16.3231    12.3870    19.9555 C             1 RES     
    3918 C           15.3906    12.0535    21.1333 C             1 RES     
    3919 C           15.6818    12.9093    22.3759 C             1 RES     
    3920 C           15.3359    14.3941    22.1630 C             1 RES     
    3921 C           15.3699    15.1991    23.4713 C             1 RES     
    3922 C           16.7976    15.4029    24.0010 C             1 RES     
    3923 C           16.7962    16.2635    25.2379 C             1 RES     
    3924 C           16.5090    15.8275    26.4793 C             1 RES     
    3925 C           16.1925    14.3952    26.8458 C             1 RES     
    3926 C           14.9781    14.3189    27.7795 C             1 RES     
    3927 C           13.6654    14.6453    27.0460 C             1 RES     
    3928 C           12.4644    14.7258    28.0112 C             1 RES     
    3929 C           12.0348    16.1675    28.3339 C             1 RES     
    3930 C           13.0967    16.9442    29.1249 C             1 RES     
    3931 C           12.5740    18.3227    29.5388 C             1 RES     
    3932 C           13.6260    19.0760    30.2895 C             1 RES     
    3933 O           13.6260    19.0760    31.5500 O             1 RES     
    3934 O           14.6298    19.7427    29.5935 O             1 RES     
    3935 H           14.0460    11.1040    18.7504 H             1 RES     
    3936 H           14.8915    10.7706    17.1990 H             1 RES     
    3937 H           14.6665    12.4758    17.7397 H             1 RES     
    3938 H           17.0176    11.5808    18.0733 H             1 RES     
    3939 H           16.3742    10.3391    19.1965 H             1 RES     
    3940 H           17.3757    12.3861    20.3140 H             1 RES     
    3941 H           16.0987    13.4028    19.5651 H             1 RES     
    3942 H           14.3298    12.1914    20.8331 H             1 RES     
    3943 H           15.5267    10.9863    21.4131 H             1 RES     
    3944 H           15.0724    12.5106    23.2166 H             1 RES     
    3945 H           16.7520    12.7998    22.6529 H             1 RES     
    3946 H           16.0365    14.8509    21.4313 H             1 RES     
    3947 H           14.3094    14.4698    21.7422 H             1 RES     
    3948 H           14.7359    14.6978    24.2317 H             1 RES     
    3949 H           14.9200    16.1975    23.2741 H             1 RES     
    3950 H           17.3946    15.9224    23.2205 H             1 RES     
    3951 H           17.3031    14.4373    24.2086 H             1 RES     
    3952 H           17.0675    17.3084    25.1179 H             1 RES     
    3953 H           16.5778    16.5456    27.2919 H             1 RES     
    3954 H           16.0114    13.7511    25.9622 H             1 RES     
    3955 H           17.0741    13.9793    27.3779 H             1 RES     
    3956 H           15.1302    15.0012    28.6426 H             1 RES     
    3957 H           14.9104    13.2860    28.1855 H             1 RES     
    3958 H           13.7643    15.5919    26.4715 H             1 RES     
    3959 H           13.4742    13.8372    26.3057 H             1 RES     
    3960 H           12.6654    14.1708    28.9542 H             1 RES     
    3961 H           11.5973    14.2227    27.5293 H             1 RES     
    3962 H           11.0997    16.1202    28.9341 H             1 RES     
    3963 H           11.8006    16.7064    27.3893 H             1 RES     
    3964 H           13.3761    16.3684    30.0350 H             1 RES     
    3965 H           14.0011    17.0811    28.4932 H             1 RES     
    3966 H           12.2904    18.9046    28.6351 H             1 RES     
    3967 H           11.6702    18.2093    30.1773 H             1 RES     
    3968 H           15.3638    20.2375    30.0860 H             1 RES     
    3969 C           28.4936     3.2644    18.0850 C             1 RES     
    3970 C           29.8377     3.1939    18.8101 C             1 RES     
    3971 C           29.9481     4.2120    19.9555 C             1 RES     
    3972 C           29.0156     3.8785    21.1333 C             1 RES     
    3973 C           29.3068     4.7343    22.3759 C             1 RES     
    3974 C           28.9609     6.2191    22.1630 C             1 RES     
    3975 C           28.9949     7.0241    23.4713 C             1 RES     
    3976 C           30.4226     7.2279    24.0010 C             1 RES     
    3977 C           30.4212     8.0885    25.2379 C             1 RES     
    3978 C           30.1340     7.6525    26.4793 C             1 RES     
    3979 C           29.8175     6.2202    26.8458 C             1 RES     
    3980 C           28.6031     6.1439    27.7795 C             1 RES     
    3981 C           27.2904     6.4703    27.0460 C             1 RES     
    3982 C           26.0894     6.5508    28.0112 C             1 RES     
    3983 C           25.6598     7.9925    28.3339 C             1 RES     
    3984 C           26.7217     8.7692    29.1249 C             1 RES     
    3985 C           26.1990    10.1477    29.5388 C             1 RES     
    3986 C           27.2510    10.9010    30.2895 C             1 RES     
    3987 O           27.2510    10.9010    31.5500 O             1 RES     
    3988 O           28.2548    11.5677    29.5935 O             1 RES     
    3989 H           27.6710     2.9290    18.7504 H             1 RES     
    3990 H           28.5165     2.5956    17.1990 H             1 RES     
    3991 H           28.2915     4.3008    17.7397 H             1 RES     
    3992 H           30.6426     3.4058    18.0733 H             1 RES     
    3993 H           29.9992     2.1641    19.1965 H             1 RES     
    3994 H           31.0007     4.2111    20.3140 H             1 RES     
    3995 H           29.7237     5.2278    19.5651 H             1 RES     
    3996 H           27.9548     4.0164    20.8331 H             1 RES     
    3997 H           29.1517     2.8113    21.4131 H             1 RES     
    3998 H           28.6974     4.3356    23.2166 H             1 RES     
    3999 H           30.3770     4.6248    22.6529 H             1 RES     
    4000 H           29.6615     6.6759    21.4313 H             1 RES     
    4001 H           27.9344     6.2948    21.7422 H             1 RES     
    4002 H           28.3609     6.5228    24.2317 H             1 RES     
    4003 H           28.5450     8.0225    23.2741 H             1 RES     
    4004 H           31.0196     7.7474    23.2205 H             1 RES     
    4005 H           30.9281     6.2623    24.2086 H             1 RES     
    4006 H           30.6925     9.1334    25.1179 H             1 RES     
    4007 H           30.2028     8.3706    27.2919 H             1 RES     
    4008 H           29.6364     5.5761    25.9622 H             1 RES     
    4009 H           30.6991     5.8043    27.3779 H             1 RES     
    4010 H           28.7552     6.8262    28.6426 H             1 RES     
    4011 H           28.5354     5.1110    28.1855 H             1 RES     
    4012 H           27.3893     7.4169    26.4715 H             1 RES     
    4013 H           27.0992     5.6622    26.3057 H             1 RES     
    4014 H           26.2904     5.9958    28.9542 H             1 RES     
    4015 H           25.2223     6.0477    27.5293 H             1 RES     
    4016 H           24.7247     7.9452    28.9341 H             1 RES     
    4017 H           25.4256     8.5314    27.3893 H             1 RES     
    4018 H           27.0011     8.1934    30.0350 H             1 RES     
    4019 H           27.6261     8.9061    28.4932 H             1 RES     
    4020 H           25.9154    10.7296    28.6351 H             1 RES     
    4021 H           25.2952    10.0343    30.1773 H             1 RES     
    4022 H           28.9888    12.0625    30.0860 H             1 RES     
    4023 C            9.4176     0.5384    18.0850 C             1 RES     
    4024 C           10.7617     0.4679    18.8101 C             1 RES     
    4025 C           10.8721     1.4860    19.9555 C             1 RES     
    4026 C            9.9396     1.1525    21.1333 C             1 RES     
    4027 C           10.2308     2.0083    22.3759 C             1 RES     
    4028 C            9.8849     3.4931    22.1630 C             1 RES     
    4029 C            9.9189     4.2981    23.4713 C             1 RES     
    4030 C           11.3466     4.5019    24.0010 C             1 RES     
    4031 C           11.3452     5.3625    25.2379 C             1 RES     
    4032 C           11.0580     4.9265    26.4793 C             1 RES     
    4033 C           10.7415     3.4942    26.8458 C             1 RES     
    4034 C            9.5271     3.4179    27.7795 C             1 RES     
    4035 C            8.2144     3.7443    27.0460 C             1 RES     
    4036 C            7.0134     3.8248    28.0112 C             1 RES     
    4037 C            6.5838     5.2665    28.3339 C             1 RES     
    4038 C            7.6457     6.0432    29.1249 C             1 RES     
    4039 C            7.1230     7.4217    29.5388 C             1 RES     
    4040 C            8.1750     8.1750    30.2895 C             1 RES     
    4041 O            8.1750     8.1750    31.5500 O             1 RES     
    4042 O            9.1788     8.8417    29.5935 O             1 RES     
    4043 H            8.5950     0.2030    18.7504 H             1 RES     
    4044 H            9.4405    -0.1304    17.1990 H             1 RES     
    4045 H            9.2155     1.5748    17.7397 H             1 RES     
    4046 H           11.5666     0.6798    18.0733 H             1 RES     
    4047 H           10.9232    -0.5619    19.1965 H             1 RES     
    4048 H           11.9247     1.4851    20.3140 H             1 RES     
    4049 H           10.6477     2.5018    19.5651 H             1 RES     
    4050 H            8.8788     1.2904    20.8331 H             1 RES     
    4051 H           10.0757     0.0853    21.4131 H             1 RES     
    4052 H            9.6214     1.6096    23.2166 H             1 RES     
    4053 H           11.3010     1.8988    22.6529 H             1 RES     
    4054 H           10.5855     3.9499    21.4313 H             1 RES     
    4055 H            8.8584     3.5688    21.7422 H             1 RES     
    4056 H            9.2849     3.7968    24.2317 H             1 RES     
    4057 H            9.4690     5.2965    23.2741 H             1 RES     
    4058 H           11.9436     5.0214    23.2205 H             1 RES     
    4059 H           11.8521     3.5363    24.2086 H             1 RES     
    4060 H           11.6165     6.4074    25.1179 H             1 RES     
    4061 H           11.1268     5.6446    27.2919 H             1 RES     
    4062 H           10.5604     2.8501    25.9622 H             1 RES     
    4063 H           11.6231     3.0783    27.3779 H             1 RES     
    4064 H            9.6792     4.1002    28.6426 H             1 RES     
    4065 H            9.4594     2.3850    28.1855 H             1 RES     
    4066 H            8.3133     4.6909    26.4715 H             1 RES     
    4067 H            8.0232     2.9362    26.3057 H             1 RES     
    4068 H            7.2144     3.2698    28.9542 H             1 RES     
    4069 H            6.1463     3.3217    27.5293 H             1 RES     
    4070 H            5.6487     5.2192    28.9341 H             1 RES     
    4071 H            6.3496     5.8054    27.3893 H             1 RES     
    4072 H            7.9251     5.4674    30.0350 H             1 RES     
    4073 H            8.5501     6.1801    28.4932 H             1 RES     
    4074 H            6.8394     8.0036    28.6351 H             1 RES     
    4075 H            6.2192     7.3083    30.1773 H             1 RES     
    4076 H            9.9128     9.3365    30.0860 H             1 RES     
    4077 C           17.5936    19.6144    18.0850 C             1 RES     
    4078 C           18.9377    19.5439    18.8101 C             1 RES     
    4079 C           19.0481    20.5620    19.9555 C             1 RES     
    4080 C           18.1156    20.2285    21.1333 C             1 RES     
    4081 C           18.4068    21.0843    22.3759 C             1 RES     
    4082 C           18.0609    22.5691    22.1630 C             1 RES     
    4083 C           18.0949    23.3741    23.4713 C             1 RES     
    4084 C           19.5226    23.5779    24.0010 C             1 RES     
    4085 C           19.5212    24.4385    25.2379 C             1 RES     
    4086 C           19.2340    24.0025    26.4793 C             1 RES     
    4087 C           18.9175    22.5702    26.8458 C             1 RES     
    4088 C           17.7031    22.4939    27.7795 C             1 RES     
    4089 C           16.3904    22.8203    27.0460 C             1 RES     
    4090 C           15.1894    22.9008    28.0112 C             1 RES     
    4091 C           14.7598    24.3425    28.3339 C             1 RES     
    4092 C           15.8217    25.1192    29.1249 C             1 RES     
    4093 C           15.2990    26.4977    29.5388 C             1 RES     
    4094 C           16.3510    27.2510    30.2895 C             1 RES     
    4095 O           16.3510    27.2510    31.5500 O             1 RES     
    4096 O           17.3548    27.9177    29.5935 O             1 RES     
    4097 H           16.7710    19.2790    18.7504 H             1 RES     
    4098 H           17.6165    18.9456    17.1990 H             1 RES     
    4099 H           17.3915    20.6508    17.7397 H             1 RES     
    4100 H           19.7426    19.7558    18.0733 H             1 RES     
    4101 H           19.0992    18.5141    19.1965 H             1 RES     
    4102 H           20.1007    20.5611    20.3140 H             1 RES     
    4103 H           18.8237    21.5778    19.5651 H             1 RES     
    4104 H           17.0548    20.3664    20.8331 H             1 RES     
    4105 H           18.2517    19.1613    21.4131 H             1 RES     
    4106 H           17.7974    20.6856    23.2166 H             1 RES     
    4107 H           19.4770    20.9748    22.6529 H             1 RES     
    4108 H           18.7615    23.0259    21.4313 H             1 RES     
    4109 H           17.0344    22.6448    21.7422 H             1 RES     
    4110 H           17.4609    22.8728    24.2317 H             1 RES     
    4111 H           17.6450    24.3725    23.2741 H             1 RES     
    4112 H           20.1196    24.0974    23.2205 H             1 RES     
    4113 H           20.0281    22.6123    24.2086 H             1 RES     
    4114 H           19.7925    25.4834    25.1179 H             1 RES     
    4115 H           19.3028    24.7206    27.2919 H             1 RES     
    4116 H           18.7364    21.9261    25.9622 H             1 RES     
    4117 H           19.7991    22.1543    27.3779 H             1 RES     
    4118 H           17.8552    23.1762    28.6426 H             1 RES     
    4119 H           17.6354    21.4610    28.1855 H             1 RES     
    4120 H           16.4893    23.7669    26.4715 H             1 RES     
    4121 H           16.1992    22.0122    26.3057 H             1 RES     
    4122 H           15.3904    22.3458    28.9542 H             1 RES     
    4123 H           14.3223    22.3977    27.5293 H             1 RES     
    4124 H           13.8247    24.2952    28.9341 H             1 RES     
    4125 H           14.5256    24.8814    27.3893 H             1 RES     
    4126 H           16.1011    24.5434    30.0350 H             1 RES     
    4127 H           16.7261    25.2561    28.4932 H             1 RES     
    4128 H           15.0154    27.0796    28.6351 H             1 RES     
    4129 H           14.3952    26.3843    30.1773 H             1 RES     
    4130 H           18.0888    28.4125    30.0860 H             1 RES     
    4131 C           31.2186     0.5384    18.0850 C             1 RES     
    4132 C           32.5627     0.4679    18.8101 C             1 RES     
    4133 C           32.6731     1.4860    19.9555 C             1 RES     
    4134 C           31.7406     1.1525    21.1333 C             1 RES     
    4135 C           32.0318     2.0083    22.3759 C             1 RES     
    4136 C           31.6859     3.4931    22.1630 C             1 RES     
    4137 C           31.7199     4.2981    23.4713 C             1 RES     
    4138 C           33.1476     4.5019    24.0010 C             1 RES     
    4139 C           33.1462     5.3625    25.2379 C             1 RES     
    4140 C           32.8590     4.9265    26.4793 C             1 RES     
    4141 C           32.5425     3.4942    26.8458 C             1 RES     
    4142 C           31.3281     3.4179    27.7795 C             1 RES     
    4143 C           30.0154     3.7443    27.0460 C             1 RES     
    4144 C           28.8144     3.8248    28.0112 C             1 RES     
    4145 C           28.3848     5.2665    28.3339 C             1 RES     
    4146 C           29.4467     6.0432    29.1249 C             1 RES     
    4147 C           28.9240     7.4217    29.5388 C             1 RES     
    4148 C           29.9760     8.1750    30.2895 C             1 RES     
    4149 O           29.9760     8.1750    31.5500 O             1 RES     
    4150 O           30.9798     8.8417    29.5935 O             1 RES     
    4151 H           30.3960     0.2030    18.7504 H             1 RES     
    4152 H           31.2415    -0.1304    17.1990 H             1 RES     
    4153 H           31.0165     1.5748    17.7397 H             1 RES     
    4154 H           33.3676     0.6798    18.0733 H             1 RES     
    4155 H           32.7242    -0.5619    19.1965 H             1 RES     
    4156 H           33.7257     1.4851    20.3140 H             1 RES     
    4157 H           32.4487     2.5018    19.5651 H             1 RES     
    4158 H           30.6798     1.2904    20.8331 H             1 RES     
    4159 H           31.8767     0.0853    21.4131 H             1 RES     
    4160 H           31.4224     1.6096    23.2166 H             1 RES     
    4161 H           33.1020     1.8988    22.6529 H             1 RES     
    4162 H           32.3865     3.9499    21.4313 H             1 RES     
    4163 H           30.6594     3.5688    21.7422 H             1 RES     
    4164 H           31.0859     3.7968    24.2317 H             1 RES     
    4165 H           31.2700     5.2965    23.2741 H             1 RES     
    4166 H           33.7446     5.0214    23.2205 H             1 RES     
    4167 H           33.6531     3.5363    24.2086 H             1 RES     
    4168 H           33.4175     6.4074    25.1179 H             1 RES     
    4169 H           32.9278     5.6446    27.2919 H             1 RES     
    4170 H           32.3614     2.8501    25.9622 H             1 RES     
    4171 H           33.4241     3.0783    27.3779 H             1 RES     
    4172 H           31.4802     4.1002    28.6426 H             1 RES     
    4173 H           31.2604     2.3850    28.1855 H             1 RES     
    4174 H           30.1143     4.6909    26.4715 H             1 RES     
    4175 H           29.8242     2.9362    26.3057 H             1 RES     
    4176 H           29.0154     3.2698    28.9542 H             1 RES     
    4177 H           27.9473     3.3217    27.5293 H             1 RES     
    4178 H           27.4497     5.2192    28.9341 H             1 RES     
    4179 H           28.1506     5.8054    27.3893 H             1 RES     
    4180 H           29.7261     5.4674    30.0350 H             1 RES     
    4181 H           30.3511     6.1801    28.4932 H             1 RES     
    4182 H           28.6404     8.0036    28.6351 H             1 RES     
    4183 H           28.0202     7.3083    30.1773 H             1 RES     
    4184 H           31.7138     9.3365    30.0860 H             1 RES     
    4185 C            6.6926    -7.6366    18.0850 C             1 RES     
    4186 C            8.0367    -7.7071    18.8101 C             1 RES     
    4187 C            8.1471    -6.6890    19.9555 C             1 RES     
    4188 C            7.2146    -7.0225    21.1333 C             1 RES     
    4189 C            7.5058    -6.1667    22.3759 C             1 RES     
    4190 C            7.1599    -4.6819    22.1630 C             1 RES     
    4191 C            7.1939    -3.8769    23.4713 C             1 RES     
    4192 C            8.6216    -3.6731    24.0010 C             1 RES     
    4193 C            8.6202    -2.8125    25.2379 C             1 RES     
    4194 C            8.3330    -3.2485    26.4793 C             1 RES     
    4195 C            8.0165    -4.6808    26.8458 C             1 RES     
    4196 C            6.8021    -4.7571    27.7795 C             1 RES     
    4197 C            5.4894    -4.4307    27.0460 C             1 RES     
    4198 C            4.2884    -4.3502    28.0112 C             1 RES     
    4199 C            3.8588    -2.9085    28.3339 C             1 RES     
    4200 C            4.9207    -2.1318    29.1249 C             1 RES     
    4201 C            4.3980    -0.7533    29.5388 C             1 RES     
    4202 C            5.4500     0.0000    30.2895 C             1 RES     
    4203 O            5.4500    -0.0000    31.5500 O             1 RES     
    4204 O            6.4538     0.6667    29.5935 O             1 RES     
    4205 H            5.8700    -7.9720    18.7504 H             1 RES     
    4206 H            6.7155    -8.3054    17.1990 H             1 RES     
    4207 H            6.4905    -6.6002    17.7397 H             1 RES     
    4208 H            8.8416    -7.4952    18.0733 H             1 RES     
    4209 H            8.1982    -8.7369    19.1965 H             1 RES     
    4210 H            9.1997    -6.6899    20.3140 H             1 RES     
    4211 H            7.9227    -5.6732    19.5651 H             1 RES     
    4212 H            6.1538    -6.8846    20.8331 H             1 RES     
    4213 H            7.3507    -8.0897    21.4131 H             1 RES     
    4214 H            6.8964    -6.5654    23.2166 H             1 RES     
    4215 H            8.5760    -6.2762    22.6529 H             1 RES     
    4216 H            7.8605    -4.2251    21.4313 H             1 RES     
    4217 H            6.1334    -4.6062    21.7422 H             1 RES     
    4218 H            6.5599    -4.3782    24.2317 H             1 RES     
    4219 H            6.7440    -2.8785    23.2741 H             1 RES     
    4220 H            9.2186    -3.1536    23.2205 H             1 RES     
    4221 H            9.1271    -4.6387    24.2086 H             1 RES     
    4222 H            8.8915    -1.7676    25.1179 H             1 RES     
    4223 H            8.4018    -2.5304    27.2919 H             1 RES     
    4224 H            7.8354    -5.3249    25.9622 H             1 RES     
    4225 H            8.8981    -5.0967    27.3779 H             1 RES     
    4226 H            6.9542    -4.0748    28.6426 H             1 RES     
    4227 H            6.7344    -5.7900    28.1855 H             1 RES     
    4228 H            5.5883    -3.4841    26.4715 H             1 RES     
    4229 H            5.2982    -5.2388    26.3057 H             1 RES     
    4230 H            4.4894    -4.9052    28.9542 H             1 RES     
    4231 H            3.4213    -4.8533    27.5293 H             1 RES     
    4232 H            2.9237    -2.9558    28.9341 H             1 RES     
    4233 H            3.6246    -2.3696    27.3893 H             1 RES     
    4234 H            5.2001    -2.7076    30.0350 H             1 RES     
    4235 H            5.8251    -1.9949    28.4932 H             1 RES     
    4236 H            4.1144    -0.1714    28.6351 H             1 RES     
    4237 H            3.4942    -0.8667    30.1773 H             1 RES     
    4238 H            7.1878     1.1615    30.0860 H             1 RES     
    4239 C           39.3946     3.2644    18.0850 C             1 RES     
    4240 C           40.7387     3.1939    18.8101 C             1 RES     
    4241 C           40.8491     4.2120    19.9555 C             1 RES     
    4242 C           39.9166     3.8785    21.1333 C             1 RES     
    4243 C           40.2078     4.7343    22.3759 C             1 RES     
    4244 C           39.8619     6.2191    22.1630 C             1 RES     
    4245 C           39.8959     7.0241    23.4713 C             1 RES     
    4246 C           41.3236     7.2279    24.0010 C             1 RES     
    4247 C           41.3222     8.0885    25.2379 C             1 RES     
    4248 C           41.0350     7.6525    26.4793 C             1 RES     
    4249 C           40.7185     6.2202    26.8458 C             1 RES     
    4250 C           39.5041     6.1439    27.7795 C             1 RES     
    4251 C           38.1914     6.4703    27.0460 C             1 RES     
    4252 C           36.9904     6.5508    28.0112 C             1 RES     
    4253 C           36.5608     7.9925    28.3339 C             1 RES     
    4254 C           37.6227     8.7692    29.1249 C             1 RES     
    4255 C           37.1000    10.1477    29.5388 C             1 RES     
    4256 C           38.1520    10.9010    30.2895 C             1 RES     
    4257 O           38.1520    10.9010    31.5500 O             1 RES     
    4258 O           39.1558    11.5677    29.5935 O             1 RES     
    4259 H           38.5720     2.9290    18.7504 H             1 RES     
    4260 H           39.4175     2.5956    17.1990 H             1 RES     
    4261 H           39.1925     4.3008    17.7397 H             1 RES     
    4262 H           41.5436     3.4058    18.0733 H             1 RES     
    4263 H           40.9002     2.1641    19.1965 H             1 RES     
    4264 H           41.9017     4.2111    20.3140 H             1 RES     
    4265 H           40.6247     5.2278    19.5651 H             1 RES     
    4266 H           38.8558     4.0164    20.8331 H             1 RES     
    4267 H           40.0527     2.8113    21.4131 H             1 RES     
    4268 H           39.5984     4.3356    23.2166 H             1 RES     
    4269 H           41.2780     4.6248    22.6529 H             1 RES     
    4270 H           40.5625     6.6759    21.4313 H             1 RES     
    4271 H           38.8354     6.2948    21.7422 H             1 RES     
    4272 H           39.2619     6.5228    24.2317 H             1 RES     
    4273 H           39.4460     8.0225    23.2741 H             1 RES     
    4274 H           41.9206     7.7474    23.2205 H             1 RES     
    4275 H           41.8291     6.2623    24.2086 H             1 RES     
    4276 H           41.5935     9.1334    25.1179 H             1 RES     
    4277 H           41.1038     8.3706    27.2919 H             1 RES     
    4278 H           40.5374     5.5761    25.9622 H             1 RES     
    4279 H           41.6001     5.8043    27.3779 H             1 RES     
    4280 H           39.6562     6.8262    28.6426 H             1 RES     
    4281 H           39.4364     5.1110    28.1855 H             1 RES     
    4282 H           38.2903     7.4169    26.4715 H             1 RES     
    4283 H           38.0002     5.6622    26.3057 H             1 RES     
    4284 H           37.1914     5.9958    28.9542 H             1 RES     
    4285 H           36.1233     6.0477    27.5293 H             1 RES     
    4286 H           35.6257     7.9452    28.9341 H             1 RES     
    4287 H           36.3266     8.5314    27.3893 H             1 RES     
    4288 H           37.9021     8.1934    30.0350 H             1 RES     
    4289 H           38.5271     8.9061    28.4932 H             1 RES     
    4290 H           36.8164    10.7296    28.6351 H             1 RES     
    4291 H           36.1962    10.0343    30.1773 H             1 RES     
    4292 H           39.8898    12.0625    30.0860 H             1 RES     
    4293 C           14.8686    16.8894    18.0850 C             1 RES     
    4294 C           16.2127    16.8189    18.8101 C             1 RES     
    4295 C           16.3231    17.8370    19.9555 C             1 RES     
    4296 C           15.3906    17.5035    21.1333 C             1 RES     
    4297 C           15.6818    18.3593    22.3759 C             1 RES     
    4298 C           15.3359    19.8441    22.1630 C             1 RES     
    4299 C           15.3699    20.6491    23.4713 C             1 RES     
    4300 C           16.7976    20.8529    24.0010 C             1 RES     
    4301 C           16.7962    21.7135    25.2379 C             1 RES     
    4302 C           16.5090    21.2775    26.4793 C             1 RES     
    4303 C           16.1925    19.8452    26.8458 C             1 RES     
    4304 C           14.9781    19.7689    27.7795 C             1 RES     
    4305 C           13.6654    20.0953    27.0460 C             1 RES     
    4306 C           12.4644    20.1758    28.0112 C             1 RES     
    4307 C           12.0348    21.6175    28.3339 C             1 RES     
    4308 C           13.0967    22.3942    29.1249 C             1 RES     
    4309 C           12.5740    23.7727    29.5388 C             1 RES     
    4310 C           13.6260    24.5260    30.2895 C             1 RES     
    4311 O           13.6260    24.5260    31.5500 O             1 RES     
    4312 O           14.6298    25.1927    29.5935 O             1 RES     
    4313 H           14.0460    16.5540    18.7504 H             1 RES     
    4314 H           14.8915    16.2206    17.1990 H             1 RES     
    4315 H           14.6665    17.9258    17.7397 H             1 RES     
    4316 H           17.0176    17.0308    18.0733 H             1 RES     
    4317 H           16.3742    15.7891    19.1965 H             1 RES     
    4318 H           17.3757    17.8361    20.3140 H             1 RES     
    4319 H           16.0987    18.8528    19.5651 H             1 RES     
    4320 H           14.3298    17.6414    20.8331 H             1 RES     
    4321 H           15.5267    16.4363    21.4131 H             1 RES     
    4322 H           15.0724    17.9606    23.2166 H             1 RES     
    4323 H           16.7520    18.2498    22.6529 H             1 RES     
    4324 H           16.0365    20.3009    21.4313 H             1 RES     
    4325 H           14.3094    19.9198    21.7422 H             1 RES     
    4326 H           14.7359    20.1478    24.2317 H             1 RES     
    4327 H           14.9200    21.6475    23.2741 H             1 RES     
    4328 H           17.3946    21.3724    23.2205 H             1 RES     
    4329 H           17.3031    19.8873    24.2086 H             1 RES     
    4330 H           17.0675    22.7584    25.1179 H             1 RES     
    4331 H           16.5778    21.9956    27.2919 H             1 RES     
    4332 H           16.0114    19.2011    25.9622 H             1 RES     
    4333 H           17.0741    19.4293    27.3779 H             1 RES     
    4334 H           15.1302    20.4512    28.6426 H             1 RES     
    4335 H           14.9104    18.7360    28.1855 H             1 RES     
    4336 H           13.7643    21.0419    26.4715 H             1 RES     
    4337 H           13.4742    19.2872    26.3057 H             1 RES     
    4338 H           12.6654    19.6208    28.9542 H             1 RES     
    4339 H           11.5973    19.6727    27.5293 H             1 RES     
    4340 H           11.0997    21.5702    28.9341 H             1 RES     
    4341 H           11.8006    22.1564    27.3893 H             1 RES     
    4342 H           13.3761    21.8184    30.0350 H             1 RES     
    4343 H           14.0011    22.5311    28.4932 H             1 RES     
    4344 H           12.2904    24.3546    28.6351 H             1 RES     
    4345 H           11.6702    23.6593    30.1773 H             1 RES     
    4346 H           15.3638    25.6875    30.0860 H             1 RES     
    4347 C           12.1436    19.6144    18.0850 C             1 RES     
    4348 C           13.4877    19.5439    18.8101 C             1 RES     
    4349 C           13.5981    20.5620    19.9555 C             1 RES     
    4350 C           12.6656    20.2285    21.1333 C             1 RES     
    4351 C           12.9568    21.0843    22.3759 C             1 RES     
    4352 C           12.6109    22.5691    22.1630 C             1 RES     
    4353 C           12.6449    23.3741    23.4713 C             1 RES     
    4354 C           14.0726    23.5779    24.0010 C             1 RES     
    4355 C           14.0712    24.4385    25.2379 C             1 RES     
    4356 C           13.7840    24.0025    26.4793 C             1 RES     
    4357 C           13.4675    22.5702    26.8458 C             1 RES     
    4358 C           12.2531    22.4939    27.7795 C             1 RES     
    4359 C           10.9404    22.8203    27.0460 C             1 RES     
    4360 C            9.7394    22.9008    28.0112 C             1 RES     
    4361 C            9.3098    24.3425    28.3339 C             1 RES     
    4362 C           10.3717    25.1192    29.1249 C             1 RES     
    4363 C            9.8490    26.4977    29.5388 C             1 RES     
    4364 C           10.9010    27.2510    30.2895 C             1 RES     
    4365 O           10.9010    27.2510    31.5500 O             1 RES     
    4366 O           11.9048    27.9177    29.5935 O             1 RES     
    4367 H           11.3210    19.2790    18.7504 H             1 RES     
    4368 H           12.1665    18.9456    17.1990 H             1 RES     
    4369 H           11.9415    20.6508    17.7397 H             1 RES     
    4370 H           14.2926    19.7558    18.0733 H             1 RES     
    4371 H           13.6492    18.5141    19.1965 H             1 RES     
    4372 H           14.6507    20.5611    20.3140 H             1 RES     
    4373 H           13.3737    21.5778    19.5651 H             1 RES     
    4374 H           11.6048    20.3664    20.8331 H             1 RES     
    4375 H           12.8017    19.1613    21.4131 H             1 RES     
    4376 H           12.3474    20.6856    23.2166 H             1 RES     
    4377 H           14.0270    20.9748    22.6529 H             1 RES     
    4378 H           13.3115    23.0259    21.4313 H             1 RES     
    4379 H           11.5844    22.6448    21.7422 H             1 RES     
    4380 H           12.0109    22.8728    24.2317 H             1 RES     
    4381 H           12.1950    24.3725    23.2741 H             1 RES     
    4382 H           14.6696    24.0974    23.2205 H             1 RES     
    4383 H           14.5781    22.6123    24.2086 H             1 RES     
    4384 H           14.3425    25.4834    25.1179 H             1 RES     
    4385 H           13.8528    24.7206    27.2919 H             1 RES     
    4386 H           13.2864    21.9261    25.9622 H             1 RES     
    4387 H           14.3491    22.1543    27.3779 H             1 RES     
    4388 H           12.4052    23.1762    28.6426 H             1 RES     
    4389 H           12.1854    21.4610    28.1855 H             1 RES     
    4390 H           11.0393    23.7669    26.4715 H             1 RES     
    4391 H           10.7492    22.0122    26.3057 H             1 RES     
    4392 H            9.9404    22.3458    28.9542 H             1 RES     
    4393 H            8.8723    22.3977    27.5293 H             1 RES     
    4394 H            8.3747    24.2952    28.9341 H             1 RES     
    4395 H            9.0756    24.8814    27.3893 H             1 RES     
    4396 H           10.6511    24.5434    30.0350 H             1 RES     
    4397 H           11.2761    25.2561    28.4932 H             1 RES     
    4398 H            9.5654    27.0796    28.6351 H             1 RES     
    4399 H            8.9452    26.3843    30.1773 H             1 RES     
    4400 H           12.6388    28.4125    30.0860 H             1 RES     
    4401 C            1.2426    14.1644    18.0850 C             1 RES     
    4402 C            2.5867    14.0939    18.8101 C             1 RES     
    4403 C            2.6971    15.1120    19.9555 C             1 RES     
    4404 C            1.7646    14.7785    21.1333 C             1 RES     
    4405 C            2.0558    15.6343    22.3759 C             1 RES     
    4406 C            1.7099    17.1191    22.1630 C             1 RES     
    4407 C            1.7439    17.9241    23.4713 C             1 RES     
    4408 C            3.1716    18.1279    24.0010 C             1 RES     
    4409 C            3.1702    18.9885    25.2379 C             1 RES     
    4410 C            2.8830    18.5525    26.4793 C             1 RES     
    4411 C            2.5665    17.1202    26.8458 C             1 RES     
    4412 C            1.3521    17.0439    27.7795 C             1 RES     
    4413 C            0.0394    17.3703    27.0460 C             1 RES     
    4414 C           -1.1616    17.4508    28.0112 C             1 RES     
    4415 C           -1.5912    18.8925    28.3339 C             1 RES     
    4416 C           -0.5293    19.6692    29.1249 C             1 RES     
    4417 C           -1.0520    21.0477    29.5388 C             1 RES     
    4418 C           -0.0000    21.8010    30.2895 C             1 RES     
    4419 O           -0.0000    21.8010    31.5500 O             1 RES     
    4420 O            1.0038    22.4677    29.5935 O             1 RES     
    4421 H            0.4200    13.8290    18.7504 H             1 RES     
    4422 H            1.2655    13.4956    17.1990 H             1 RES     
    4423 H            1.0405    15.2008    17.7397 H             1 RES     
    4424 H            3.3916    14.3058    18.0733 H             1 RES     
    4425 H            2.7482    13.0641    19.1965 H             1 RES     
    4426 H            3.7497    15.1111    20.3140 H             1 RES     
    4427 H            2.4727    16.1278    19.5651 H             1 RES     
    4428 H            0.7038    14.9164    20.8331 H             1 RES     
    4429 H            1.9007    13.7113    21.4131 H             1 RES     
    4430 H            1.4464    15.2356    23.2166 H             1 RES     
    4431 H            3.1260    15.5248    22.6529 H             1 RES     
    4432 H            2.4105    17.5759    21.4313 H             1 RES     
    4433 H            0.6834    17.1948    21.7422 H             1 RES     
    4434 H            1.1099    17.4228    24.2317 H             1 RES     
    4435 H            1.2940    18.9225    23.2741 H             1 RES     
    4436 H            3.7686    18.6474    23.2205 H             1 RES     
    4437 H            3.6771    17.1623    24.2086 H             1 RES     
    4438 H            3.4415    20.0334    25.1179 H             1 RES     
    4439 H            2.9518    19.2706    27.2919 H             1 RES     
    4440 H            2.3854    16.4761    25.9622 H             1 RES     
    4441 H            3.4481    16.7043    27.3779 H             1 RES     
    4442 H            1.5042    17.7262    28.6426 H             1 RES     
    4443 H            1.2844    16.0110    28.1855 H             1 RES     
    4444 H            0.1383    18.3169    26.4715 H             1 RES     
    4445 H           -0.1518    16.5622    26.3057 H             1 RES     
    4446 H           -0.9606    16.8958    28.9542 H             1 RES     
    4447 H           -2.0287    16.9477    27.5293 H             1 RES     
    4448 H           -2.5263    18.8452    28.9341 H             1 RES     
    4449 H           -1.8254    19.4314    27.3893 H             1 RES     
    4450 H           -0.2499    19.0934    30.0350 H             1 RES     
    4451 H            0.3751    19.8061    28.4932 H             1 RES     
    4452 H           -1.3356    21.6296    28.6351 H             1 RES     
    4453 H           -1.9558    20.9343    30.1773 H             1 RES     
    4454 H            1.7378    22.9625    30.0860 H             1 RES     
    4455 C           36.6696     5.9894    18.0850 C             1 RES     
    4456 C           38.0137     5.9189    18.8101 C             1 RES     
    4457 C           38.1241     6.9370    19.9555 C             1 RES     
    4458 C           37.1916     6.6035    21.1333 C             1 RES     
    4459 C           37.4828     7.4593    22.3759 C             1 RES     
    4460 C           37.1369     8.9441    22.1630 C             1 RES     
    4461 C           37.1709     9.7491    23.4713 C             1 RES     
    4462 C           38.5986     9.9529    24.0010 C             1 RES     
    4463 C           38.5972    10.8135    25.2379 C             1 RES     
    4464 C           38.3100    10.3775    26.4793 C             1 RES     
    4465 C           37.9935     8.9452    26.8458 C             1 RES     
    4466 C           36.7791     8.8689    27.7795 C             1 RES     
    4467 C           35.4664     9.1953    27.0460 C             1 RES     
    4468 C           34.2654     9.2758    28.0112 C             1 RES     
    4469 C           33.8358    10.7175    28.3339 C             1 RES     
    4470 C           34.8977    11.4942    29.1249 C             1 RES     
    4471 C           34.3750    12.8727    29.5388 C             1 RES     
    4472 C           35.4270    13.6260    30.2895 C             1 RES     
    4473 O           35.4270    13.6260    31.5500 O             1 RES     
    4474 O           36.4308    14.2927    29.5935 O             1 RES     
    4475 H           35.8470     5.6540    18.7504 H             1 RES     
    4476 H           36.6925     5.3206    17.1990 H             1 RES     
    4477 H           36.4675     7.0258    17.7397 H             1 RES     
    4478 H           38.8186     6.1308    18.0733 H             1 RES     
    4479 H           38.1752     4.8891    19.1965 H             1 RES     
    4480 H           39.1767     6.9361    20.3140 H             1 RES     
    4481 H           37.8997     7.9528    19.5651 H             1 RES     
    4482 H           36.1308     6.7414    20.8331 H             1 RES     
    4483 H           37.3277     5.5363    21.4131 H             1 RES     
    4484 H           36.8734     7.0606    23.2166 H             1 RES     
    4485 H           38.5530     7.3498    22.6529 H             1 RES     
    4486 H           37.8375     9.4009    21.4313 H             1 RES     
    4487 H           36.1104     9.0198    21.7422 H             1 RES     
    4488 H           36.5369     9.2478    24.2317 H             1 RES     
    4489 H           36.7210    10.7475    23.2741 H             1 RES     
    4490 H           39.1956    10.4724    23.2205 H             1 RES     
    4491 H           39.1041     8.9873    24.2086 H             1 RES     
    4492 H           38.8685    11.8584    25.1179 H             1 RES     
    4493 H           38.3788    11.0956    27.2919 H             1 RES     
    4494 H           37.8124     8.3011    25.9622 H             1 RES     
    4495 H           38.8751     8.5293    27.3779 H             1 RES     
    4496 H           36.9312     9.5512    28.6426 H             1 RES     
    4497 H           36.7114     7.8360    28.1855 H             1 RES     
    4498 H           35.5653    10.1419    26.4715 H             1 RES     
    4499 H           35.2752     8.3872    26.3057 H             1 RES     
    4500 H           34.4664     8.7208    28.9542 H             1 RES     
    4501 H           33.3983     8.7727    27.5293 H             1 RES     
    4502 H           32.9007    10.6702    28.9341 H             1 RES     
    4503 H           33.6016    11.2564    27.3893 H             1 RES     
    4504 H           35.1771    10.9184    30.0350 H             1 RES     
    4505 H           35.8021    11.6311    28.4932 H             1 RES     
    4506 H           34.0914    13.4546    28.6351 H             1 RES     
    4507 H           33.4712    12.7593    30.1773 H             1 RES     
    4508 H           37.1648    14.7875    30.0860 H             1 RES     
    4509 C           12.1436    25.0654    18.0850 C             1 RES     
    4510 C           13.4877    24.9949    18.8101 C             1 RES     
    4511 C           13.5981    26.0130    19.9555 C             1 RES     
    4512 C           12.6656    25.6795    21.1333 C             1 RES     
    4513 C           12.9568    26.5353    22.3759 C             1 RES     
    4514 C           12.6109    28.0201    22.1630 C             1 RES     
    4515 C           12.6449    28.8251    23.4713 C             1 RES     
    4516 C           14.0726    29.0289    24.0010 C             1 RES     
    4517 C           14.0712    29.8895    25.2379 C             1 RES     
    4518 C           13.7840    29.4535    26.4793 C             1 RES     
    4519 C           13.4675    28.0212    26.8458 C             1 RES     
    4520 C           12.2531    27.9449    27.7795 C             1 RES     
    4521 C           10.9404    28.2713    27.0460 C             1 RES     
    4522 C            9.7394    28.3518    28.0112 C             1 RES     
    4523 C            9.3098    29.7935    28.3339 C             1 RES     
    4524 C           10.3717    30.5702    29.1249 C             1 RES     
    4525 C            9.8490    31.9487    29.5388 C             1 RES     
    4526 C           10.9010    32.7020    30.2895 C             1 RES     
    4527 O           10.9010    32.7020    31.5500 O             1 RES     
    4528 O           11.9048    33.3687    29.5935 O             1 RES     
    4529 H           11.3210    24.7300    18.7504 H             1 RES     
    4530 H           12.1665    24.3966    17.1990 H             1 RES     
    4531 H           11.9415    26.1018    17.7397 H             1 RES     
    4532 H           14.2926    25.2068    18.0733 H             1 RES     
    4533 H           13.6492    23.9651    19.1965 H             1 RES     
    4534 H           14.6507    26.0121    20.3140 H             1 RES     
    4535 H           13.3737    27.0288    19.5651 H             1 RES     
    4536 H           11.6048    25.8174    20.8331 H             1 RES     
    4537 H           12.8017    24.6123    21.4131 H             1 RES     
    4538 H           12.3474    26.1366    23.2166 H             1 RES     
    4539 H           14.0270    26.4258    22.6529 H             1 RES     
    4540 H           13.3115    28.4769    21.4313 H             1 RES     
    4541 H           11.5844    28.0958    21.7422 H             1 RES     
    4542 H           12.0109    28.3238    24.2317 H             1 RES     
    4543 H           12.1950    29.8235    23.2741 H             1 RES     
    4544 H           14.6696    29.5484    23.2205 H             1 RES     
    4545 H           14.5781    28.0633    24.2086 H             1 RES     
    4546 H           14.3425    30.9344    25.1179 H             1 RES     
    4547 H           13.8528    30.1716    27.2919 H             1 RES     
    4548 H           13.2864    27.3771    25.9622 H             1 RES     
    4549 H           14.3491    27.6053    27.3779 H             1 RES     
    4550 H           12.4052    28.6272    28.6426 H             1 RES     
    4551 H           12.1854    26.9120    28.1855 H             1 RES     
    4552 H           11.0393    29.2179    26.4715 H             1 RES     
    4553 H           10.7492    27.4632    26.3057 H             1 RES     
    4554 H            9.9404    27.7968    28.9542 H             1 RES     
    4555 H            8.8723    27.8487    27.5293 H             1 RES     
    4556 H            8.3747    29.7462    28.9341 H             1 RES     
    4557 H            9.0756    30.3324    27.3893 H             1 RES     
    4558 H           10.6511    29.9944    30.0350 H             1 RES     
    4559 H           11.2761    30.7071    28.4932 H             1 RES     
    4560 H            9.5654    32.5306    28.6351 H             1 RES     
    4561 H            8.9452    31.8353    30.1773 H             1 RES     
    4562 H           12.6388    33.8635    30.0860 H             1 RES     
    4563 C           12.1436     3.2644    18.0850 C             1 RES     
    4564 C           13.4877     3.1939    18.8101 C             1 RES     
    4565 C           13.5981     4.2120    19.9555 C             1 RES     
    4566 C           12.6656     3.8785    21.1333 C             1 RES     
    4567 C           12.9568     4.7343    22.3759 C             1 RES     
    4568 C           12.6109     6.2191    22.1630 C             1 RES     
    4569 C           12.6449     7.0241    23.4713 C             1 RES     
    4570 C           14.0726     7.2279    24.0010 C             1 RES     
    4571 C           14.0712     8.0885    25.2379 C             1 RES     
    4572 C           13.7840     7.6525    26.4793 C             1 RES     
    4573 C           13.4675     6.2202    26.8458 C             1 RES     
    4574 C           12.2531     6.1439    27.7795 C             1 RES     
    4575 C           10.9404     6.4703    27.0460 C             1 RES     
    4576 C            9.7394     6.5508    28.0112 C             1 RES     
    4577 C            9.3098     7.9925    28.3339 C             1 RES     
    4578 C           10.3717     8.7692    29.1249 C             1 RES     
    4579 C            9.8490    10.1477    29.5388 C             1 RES     
    4580 C           10.9010    10.9010    30.2895 C             1 RES     
    4581 O           10.9010    10.9010    31.5500 O             1 RES     
    4582 O           11.9048    11.5677    29.5935 O             1 RES     
    4583 H           11.3210     2.9290    18.7504 H             1 RES     
    4584 H           12.1665     2.5956    17.1990 H             1 RES     
    4585 H           11.9415     4.3008    17.7397 H             1 RES     
    4586 H           14.2926     3.4058    18.0733 H             1 RES     
    4587 H           13.6492     2.1641    19.1965 H             1 RES     
    4588 H           14.6507     4.2111    20.3140 H             1 RES     
    4589 H           13.3737     5.2278    19.5651 H             1 RES     
    4590 H           11.6048     4.0164    20.8331 H             1 RES     
    4591 H           12.8017     2.8113    21.4131 H             1 RES     
    4592 H           12.3474     4.3356    23.2166 H             1 RES     
    4593 H           14.0270     4.6248    22.6529 H             1 RES     
    4594 H           13.3115     6.6759    21.4313 H             1 RES     
    4595 H           11.5844     6.2948    21.7422 H             1 RES     
    4596 H           12.0109     6.5228    24.2317 H             1 RES     
    4597 H           12.1950     8.0225    23.2741 H             1 RES     
    4598 H           14.6696     7.7474    23.2205 H             1 RES     
    4599 H           14.5781     6.2623    24.2086 H             1 RES     
    4600 H           14.3425     9.1334    25.1179 H             1 RES     
    4601 H           13.8528     8.3706    27.2919 H             1 RES     
    4602 H           13.2864     5.5761    25.9622 H             1 RES     
    4603 H           14.3491     5.8043    27.3779 H             1 RES     
    4604 H           12.4052     6.8262    28.6426 H             1 RES     
    4605 H           12.1854     5.1110    28.1855 H             1 RES     
    4606 H           11.0393     7.4169    26.4715 H             1 RES     
    4607 H           10.7492     5.6622    26.3057 H             1 RES     
    4608 H            9.9404     5.9958    28.9542 H             1 RES     
    4609 H            8.8723     6.0477    27.5293 H             1 RES     
    4610 H            8.3747     7.9452    28.9341 H             1 RES     
    4611 H            9.0756     8.5314    27.3893 H             1 RES     
    4612 H           10.6511     8.1934    30.0350 H             1 RES     
    4613 H           11.2761     8.9061    28.4932 H             1 RES     
    4614 H            9.5654    10.7296    28.6351 H             1 RES     
    4615 H            8.9452    10.0343    30.1773 H             1 RES     
    4616 H           12.6388    12.0625    30.0860 H             1 RES     
    4617 C           25.7686    -4.9116    18.0850 C             1 RES     
    4618 C           27.1127    -4.9821    18.8101 C             1 RES     
    4619 C           27.2231    -3.9640    19.9555 C             1 RES     
    4620 C           26.2906    -4.2975    21.1333 C             1 RES     
    4621 C           26.5818    -3.4417    22.3759 C             1 RES     
    4622 C           26.2359    -1.9569    22.1630 C             1 RES     
    4623 C           26.2699    -1.1519    23.4713 C             1 RES     
    4624 C           27.6976    -0.9481    24.0010 C             1 RES     
    4625 C           27.6962    -0.0875    25.2379 C             1 RES     
    4626 C           27.4090    -0.5235    26.4793 C             1 RES     
    4627 C           27.0925    -1.9558    26.8458 C             1 RES     
    4628 C           25.8781    -2.0321    27.7795 C             1 RES     
    4629 C           24.5654    -1.7057    27.0460 C             1 RES     
    4630 C           23.3644    -1.6252    28.0112 C             1 RES     
    4631 C           22.9348    -0.1835    28.3339 C             1 RES     
    4632 C           23.9967     0.5932    29.1249 C             1 RES     
    4633 C           23.4740     1.9717    29.5388 C             1 RES     
    4634 C           24.5260     2.7250    30.2895 C             1 RES     
    4635 O           24.5260     2.7250    31.5500 O             1 RES     
    4636 O           25.5298     3.3917    29.5935 O             1 RES     
    4637 H           24.9460    -5.2470    18.7504 H             1 RES     
    4638 H           25.7915    -5.5804    17.1990 H             1 RES     
    4639 H           25.5665    -3.8752    17.7397 H             1 RES     
    4640 H           27.9176    -4.7702    18.0733 H             1 RES     
    4641 H           27.2742    -6.0119    19.1965 H             1 RES     
    4642 H           28.2757    -3.9649    20.3140 H             1 RES     
    4643 H           26.9987    -2.9482    19.5651 H             1 RES     
    4644 H           25.2298    -4.1596    20.8331 H             1 RES     
    4645 H           26.4267    -5.3647    21.4131 H             1 RES     
    4646 H           25.9724    -3.8404    23.2166 H             1 RES     
    4647 H           27.6520    -3.5512    22.6529 H             1 RES     
    4648 H           26.9365    -1.5001    21.4313 H             1 RES     
    4649 H           25.2094    -1.8812    21.7422 H             1 RES     
    4650 H           25.6359    -1.6532    24.2317 H             1 RES     
    4651 H           25.8200    -0.1535    23.2741 H             1 RES     
    4652 H           28.2946    -0.4286    23.2205 H             1 RES     
    4653 H           28.2031    -1.9137    24.2086 H             1 RES     
    4654 H           27.9675     0.9574    25.1179 H             1 RES     
    4655 H           27.4778     0.1946    27.2919 H             1 RES     
    4656 H           26.9114    -2.5999    25.9622 H             1 RES     
    4657 H           27.9741    -2.3717    27.3779 H             1 RES     
    4658 H           26.0302    -1.3498    28.6426 H             1 RES     
    4659 H           25.8104    -3.0650    28.1855 H             1 RES     
    4660 H           24.6643    -0.7591    26.4715 H             1 RES     
    4661 H           24.3742    -2.5138    26.3057 H             1 RES     
    4662 H           23.5654    -2.1802    28.9542 H             1 RES     
    4663 H           22.4973    -2.1283    27.5293 H             1 RES     
    4664 H           21.9997    -0.2308    28.9341 H             1 RES     
    4665 H           22.7006     0.3554    27.3893 H             1 RES     
    4666 H           24.2761     0.0174    30.0350 H             1 RES     
    4667 H           24.9011     0.7301    28.4932 H             1 RES     
    4668 H           23.1904     2.5536    28.6351 H             1 RES     
    4669 H           22.5702     1.8583    30.1773 H             1 RES     
    4670 H           26.2638     3.8865    30.0860 H             1 RES     
    4671 C            3.9676     0.5384    18.0850 C             1 RES     
    4672 C            5.3117     0.4679    18.8101 C             1 RES     
    4673 C            5.4221     1.4860    19.9555 C             1 RES     
    4674 C            4.4896     1.1525    21.1333 C             1 RES     
    4675 C            4.7808     2.0083    22.3759 C             1 RES     
    4676 C            4.4349     3.4931    22.1630 C             1 RES     
    4677 C            4.4689     4.2981    23.4713 C             1 RES     
    4678 C            5.8966     4.5019    24.0010 C             1 RES     
    4679 C            5.8952     5.3625    25.2379 C             1 RES     
    4680 C            5.6080     4.9265    26.4793 C             1 RES     
    4681 C            5.2915     3.4942    26.8458 C             1 RES     
    4682 C            4.0771     3.4179    27.7795 C             1 RES     
    4683 C            2.7644     3.7443    27.0460 C             1 RES     
    4684 C            1.5634     3.8248    28.0112 C             1 RES     
    4685 C            1.1338     5.2665    28.3339 C             1 RES     
    4686 C            2.1957     6.0432    29.1249 C             1 RES     
    4687 C            1.6730     7.4217    29.5388 C             1 RES     
    4688 C            2.7250     8.1750    30.2895 C             1 RES     
    4689 O            2.7250     8.1750    31.5500 O             1 RES     
    4690 O            3.7288     8.8417    29.5935 O             1 RES     
    4691 H            3.1450     0.2030    18.7504 H             1 RES     
    4692 H            3.9905    -0.1304    17.1990 H             1 RES     
    4693 H            3.7655     1.5748    17.7397 H             1 RES     
    4694 H            6.1166     0.6798    18.0733 H             1 RES     
    4695 H            5.4732    -0.5619    19.1965 H             1 RES     
    4696 H            6.4747     1.4851    20.3140 H             1 RES     
    4697 H            5.1977     2.5018    19.5651 H             1 RES     
    4698 H            3.4288     1.2904    20.8331 H             1 RES     
    4699 H            4.6257     0.0853    21.4131 H             1 RES     
    4700 H            4.1714     1.6096    23.2166 H             1 RES     
    4701 H            5.8510     1.8988    22.6529 H             1 RES     
    4702 H            5.1355     3.9499    21.4313 H             1 RES     
    4703 H            3.4084     3.5688    21.7422 H             1 RES     
    4704 H            3.8349     3.7968    24.2317 H             1 RES     
    4705 H            4.0190     5.2965    23.2741 H             1 RES     
    4706 H            6.4936     5.0214    23.2205 H             1 RES     
    4707 H            6.4021     3.5363    24.2086 H             1 RES     
    4708 H            6.1665     6.4074    25.1179 H             1 RES     
    4709 H            5.6768     5.6446    27.2919 H             1 RES     
    4710 H            5.1104     2.8501    25.9622 H             1 RES     
    4711 H            6.1731     3.0783    27.3779 H             1 RES     
    4712 H            4.2292     4.1002    28.6426 H             1 RES     
    4713 H            4.0094     2.3850    28.1855 H             1 RES     
    4714 H            2.8633     4.6909    26.4715 H             1 RES     
    4715 H            2.5732     2.9362    26.3057 H             1 RES     
    4716 H            1.7644     3.2698    28.9542 H             1 RES     
    4717 H            0.6963     3.3217    27.5293 H             1 RES     
    4718 H            0.1987     5.2192    28.9341 H             1 RES     
    4719 H            0.8996     5.8054    27.3893 H             1 RES     
    4720 H            2.4751     5.4674    30.0350 H             1 RES     
    4721 H            3.1001     6.1801    28.4932 H             1 RES     
    4722 H            1.3894     8.0036    28.6351 H             1 RES     
    4723 H            0.7692     7.3083    30.1773 H             1 RES     
    4724 H            4.4628     9.3365    30.0860 H             1 RES     
@<TRIPOS>BOND
       1      538        1 1
       2      535        1 1
       3      537        1 1
       4      536        1 1
       5      539        2 1
       6      339        2 1
       7      541        2 1
       8      540        2 1
       9      544        3 1
      10      542        3 1
      11      543        3 1
      12      342        3 1
      13      548        4 1
      14      545        4 1
      15      547        4 1
      16      546        4 1
      17      551        5 1
      18      549        5 1
      19      550        5 1
      20      341        5 1
      21      555        6 1
      22      552        6 1
      23      554        6 1
      24      553        6 1
      25      559        7 1
      26      556        7 1
      27      558        7 1
      28      557        7 1
      29      562        8 1
      30      340        8 1
      31      561        8 1
      32      560        8 1
      33      536        9 1
      34      347        9 1
      35      563        9 1
      36      339        9 1
      37      564       10 1
      38      341       10 1
      39      555       10 1
      40      348       10 1
      41      537       11 1
      42      343       11 1
      43      565       11 1
      44      339       11 1
      45      566       12 1
      46      342       12 1
      47      548       12 1
      48      344       12 1
      49      567       13 1
      50      538       13 1
      51      347       13 1
      52      343       13 1
      53      351       14 1
      54      339       14 1
      55      569       14 1
      56      568       14 1
      57      572       15 1
      58      570       15 1
      59      571       15 1
      60      347       15 1
      61      563       16 1
      62      353       16 1
      63      573       16 1
      64      568       16 1
      65     1841       16 1
      66      575       17 1
      67      574       17 1
      68      354       17 1
      69      564       17 1
      70      578       18 1
      71      348       18 1
      72      576       18 1
      73      577       18 1
      74      581       19 1
      75      579       19 1
      76      361       19 1
      77      580       19 1
      78      582       20 1
      79      349       20 1
      80      584       20 1
      81      583       20 1
      82      585       21 1
      83      587       21 1
      84      586       21 1
      85      350       21 1
      86      590       22 1
      87      360       22 1
      88      589       22 1
      89      588       22 1
      90      593       23 1
      91      591       23 1
      92      592       23 1
      93      343       23 1
      94      565       24 1
      95      355       24 1
      96      569       24 1
      97      594       24 1
      98      595       25 1
      99      596       25 1
     100      356       25 1
     101      566       25 1
     102      599       26 1
     103      344       26 1
     104      598       26 1
     105      597       26 1
     106      600       27 1
     107      602       27 1
     108      366       27 1
     109      601       27 1
     110      603       28 1
     111      346       28 1
     112      605       28 1
     113      604       28 1
     114      606       29 1
     115      608       29 1
     116      607       29 1
     117      345       29 1
     118      611       30 1
     119      365       30 1
     120      610       30 1
     121      609       30 1
     122      370       31 1
     123      571       31 1
     124      612       31 1
     125      353       31 1
     126      354       32 1
     127      613       32 1
     128      578       32 1
     129      371       32 1
     130      580       33 1
     131      342       33 1
     132      545       33 1
     133      349       33 1
     134      558       34 1
     135      350       34 1
     136      590       34 1
     137      340       34 1
     138      358       35 1
     139      343       35 1
     140      355       35 1
     141      351       35 1
     142      366       36 1
     143      352       36 1
     144      362       36 1
     145      346       36 1
     146      359       37 1
     147      347       37 1
     148      351       37 1
     149      353       37 1
     150      357       38 1
     151      361       38 1
     152      349       38 1
     153      367       38 1
     154      379       39 1
     155      592       39 1
     156      614       39 1
     157      355       39 1
     158      356       40 1
     159      615       40 1
     160      599       40 1
     161      380       40 1
     162      601       41 1
     163      341       41 1
     164      552       41 1
     165      346       41 1
     166      557       42 1
     167      345       42 1
     168      611       42 1
     169      340       42 1
     170      572       43 1
     171      616       43 1
     172      359       43 1
     173      370       43 1
     174      374       44 1
     175      353       44 1
     176      617       44 1
     177      618       44 1
     178      595       45 1
     179      581       45 1
     180      357       45 1
     181      342       45 1
     182      344       46 1
     183      349       46 1
     184      547       46 1
     185      619       46 1
     186     1355       46 1
     187      593       47 1
     188      620       47 1
     189      358       47 1
     190      379       47 1
     191      355       48 1
     192      377       48 1
     193      622       48 1
     194      621       48 1
     195     2327       48 1
     196      574       49 1
     197      602       49 1
     198      341       49 1
     199      352       49 1
     200      348       50 1
     201      346       50 1
     202      553       50 1
     203      623       50 1
     204     1139       50 1
     205      624       51 1
     206      626       51 1
     207      370       51 1
     208      625       51 1
     209      612       52 1
     210      384       52 1
     211      617       52 1
     212      627       52 1
     213      629       53 1
     214      628       53 1
     215      386       53 1
     216      613       53 1
     217      632       54 1
     218      371       54 1
     219      630       54 1
     220      631       54 1
     221      633       55 1
     222      635       55 1
     223      387       55 1
     224      634       55 1
     225      636       56 1
     226      403       56 1
     227      637       56 1
     228      638       56 1
     229      639       57 1
     230      641       57 1
     231      401       57 1
     232      640       57 1
     233      644       58 1
     234      385       58 1
     235      643       58 1
     236      642       58 1
     237      647       59 1
     238      645       59 1
     239      379       59 1
     240      646       59 1
     241      614       60 1
     242      392       60 1
     243      648       60 1
     244      622       60 1
     245      650       61 1
     246      649       61 1
     247      394       61 1
     248      615       61 1
     249      380       62 1
     250      653       62 1
     251      651       62 1
     252      652       62 1
     253     1895       62 1
     254      656       63 1
     255      654       63 1
     256      395       63 1
     257      655       63 1
     258      657       64 1
     259      417       64 1
     260      658       64 1
     261      659       64 1
     262     1193       64 1
     263      660       65 1
     264      662       65 1
     265      415       65 1
     266      661       65 1
     267      393       66 1
     268      665       66 1
     269      663       66 1
     270      664       66 1
     271      400       67 1
     272      625       67 1
     273      666       67 1
     274      384       67 1
     275      667       68 1
     276      386       68 1
     277      632       68 1
     278      402       68 1
     279      361       69 1
     280      634       69 1
     281      582       69 1
     282      403       69 1
     283      401       70 1
     284      586       70 1
     285      644       70 1
     286      360       70 1
     287      388       71 1
     288      379       71 1
     289      392       71 1
     290      377       71 1
     291      395       72 1
     292      411       72 1
     293      389       72 1
     294      417       72 1
     295      396       73 1
     296      370       73 1
     297      374       73 1
     298      384       73 1
     299      387       74 1
     300      407       74 1
     301      397       74 1
     302      403       74 1
     303      414       75 1
     304      646       75 1
     305      392       75 1
     306      668       75 1
     307      394       76 1
     308      669       76 1
     309      416       76 1
     310      653       76 1
     311      366       77 1
     312      655       77 1
     313      603       77 1
     314      417       77 1
     315      415       78 1
     316      607       78 1
     317      665       78 1
     318      365       78 1
     319      670       79 1
     320      626       79 1
     321      396       79 1
     322      400       79 1
     323      406       80 1
     324      384       80 1
     325      671       80 1
     326      672       80 1
     327      635       81 1
     328      673       81 1
     329      407       81 1
     330      361       81 1
     331      403       82 1
     332      367       82 1
     333      584       82 1
     334      674       82 1
     335      647       83 1
     336      675       83 1
     337      388       83 1
     338      414       83 1
     339      392       84 1
     340      410       84 1
     341      676       84 1
     342      677       84 1
     343     1463       84 1
     344      656       85 1
     345      678       85 1
     346      366       85 1
     347      411       85 1
     348      417       86 1
     349      362       86 1
     350      604       86 1
     351      679       86 1
     352      680       87 1
     353      682       87 1
     354      400       87 1
     355      681       87 1
     356      666       88 1
     357      424       88 1
     358      671       88 1
     359      683       88 1
     360      684       89 1
     361      685       89 1
     362      426       89 1
     363      667       89 1
     364      402       90 1
     365      688       90 1
     366      686       90 1
     367      687       90 1
     368      691       91 1
     369      689       91 1
     370      427       91 1
     371      690       91 1
     372      692       92 1
     373      441       92 1
     374      694       92 1
     375      693       92 1
     376      697       93 1
     377      695       93 1
     378      440       93 1
     379      696       93 1
     380      425       94 1
     381      700       94 1
     382      698       94 1
     383      699       94 1
     384      869       94 1
     385      703       95 1
     386      701       95 1
     387      414       95 1
     388      702       95 1
     389      668       96 1
     390      432       96 1
     391      677       96 1
     392      704       96 1
     393      705       97 1
     394      706       97 1
     395      434       97 1
     396      669       97 1
     397      416       98 1
     398      709       98 1
     399      707       98 1
     400      708       98 1
     401      712       99 1
     402      710       99 1
     403      435       99 1
     404      711       99 1
     405      713      100 1
     406      449      100 1
     407      714      100 1
     408      715      100 1
     409     2057      100 1
     410      716      101 1
     411      718      101 1
     412      448      101 1
     413      717      101 1
     414      721      102 1
     415      433      102 1
     416      719      102 1
     417      720      102 1
     418      427      103 1
     419      681      103 1
     420      424      103 1
     421      692      103 1
     422      426      104 1
     423      696      104 1
     424      425      104 1
     425      688      104 1
     426      387      105 1
     427      690      105 1
     428      636      105 1
     429      441      105 1
     430      640      106 1
     431      440      106 1
     432      385      106 1
     433      700      106 1
     434      428      107 1
     435      414      107 1
     436      410      107 1
     437      432      107 1
     438      435      108 1
     439      446      108 1
     440      429      108 1
     441      449      108 1
     442      436      109 1
     443      400      109 1
     444      406      109 1
     445      424      109 1
     446      427      110 1
     447      444      110 1
     448      437      110 1
     449      441      110 1
     450      435      111 1
     451      702      111 1
     452      713      111 1
     453      432      111 1
     454      434      112 1
     455      717      112 1
     456      709      112 1
     457      433      112 1
     458      395      113 1
     459      711      113 1
     460      657      113 1
     461      449      113 1
     462      448      114 1
     463      661      114 1
     464      721      114 1
     465      393      114 1
     466      722      115 1
     467      682      115 1
     468      436      115 1
     469      427      115 1
     470      424      116 1
     471      437      116 1
     472      723      116 1
     473      694      116 1
     474      724      117 1
     475      691      117 1
     476      387      117 1
     477      444      117 1
     478      397      118 1
     479      441      118 1
     480      638      118 1
     481      725      118 1
     482     2273      118 1
     483      703      119 1
     484      726      119 1
     485      435      119 1
     486      428      119 1
     487      429      120 1
     488      432      120 1
     489      727      120 1
     490      714      120 1
     491     1085      120 1
     492      712      121 1
     493      728      121 1
     494      395      121 1
     495      446      121 1
     496      389      122 1
     497      449      122 1
     498      658      122 1
     499      729      122 1
     500      567      123 1
     501      730      123 1
     502      359      123 1
     503      358      123 1
     504      351      124 1
     505      372      124 1
     506      618      124 1
     507      621      124 1
     508      731      125 1
     509      732      125 1
     510      369      125 1
     511      364      125 1
     512      376      126 1
     513      454      126 1
     514      733      126 1
     515      734      126 1
     516      735      127 1
     517      678      127 1
     518      373      127 1
     519      352      127 1
     520      362      128 1
     521      368      128 1
     522      623      128 1
     523      736      128 1
     524      737      129 1
     525      673      129 1
     526      357      129 1
     527      381      129 1
     528      363      130 1
     529      367      130 1
     530      619      130 1
     531      738      130 1
     532      359      131 1
     533      383      131 1
     534      372      131 1
     535      374      131 1
     536      364      132 1
     537      345      132 1
     538      365      132 1
     539      376      132 1
     540      375      133 1
     541      373      133 1
     542      368      133 1
     543      455      133 1
     544      356      134 1
     545      357      134 1
     546      344      134 1
     547      363      134 1
     548      358      135 1
     549      382      135 1
     550      372      135 1
     551      377      135 1
     552      369      136 1
     553      350      136 1
     554      360      136 1
     555      376      136 1
     556      354      137 1
     557      352      137 1
     558      348      137 1
     559      368      137 1
     560      378      138 1
     561      381      138 1
     562      363      138 1
     563      456      138 1
     564      739      139 1
     565      730      139 1
     566      383      139 1
     567      382      139 1
     568      372      140 1
     569      457      140 1
     570      740      140 1
     571      741      140 1
     572     1679      140 1
     573      732      141 1
     574      556      141 1
     575      345      141 1
     576      350      141 1
     577      376      142 1
     578      340      142 1
     579      610      142 1
     580      588      142 1
     581      735      143 1
     582      628      143 1
     583      354      143 1
     584      375      143 1
     585      368      144 1
     586      371      144 1
     587      576      144 1
     588      742      144 1
     589      737      145 1
     590      649      145 1
     591      356      145 1
     592      378      145 1
     593      363      146 1
     594      380      146 1
     595      598      146 1
     596      743      146 1
     597      744      147 1
     598      616      147 1
     599      383      147 1
     600      396      147 1
     601      418      148 1
     602      374      148 1
     603      740      148 1
     604      672      148 1
     605      746      149 1
     606      745      149 1
     607      399      149 1
     608      462      149 1
     609      409      150 1
     610      458      150 1
     611      747      150 1
     612      748      150 1
     613      750      151 1
     614      749      151 1
     615      375      151 1
     616      459      151 1
     617      398      152 1
     618      455      152 1
     619      742      152 1
     620      751      152 1
     621     2165      152 1
     622      724      153 1
     623      752      153 1
     624      419      153 1
     625      407      153 1
     626      397      154 1
     627      423      154 1
     628      753      154 1
     629      674      154 1
     630      754      155 1
     631      620      155 1
     632      388      155 1
     633      382      155 1
     634      404      156 1
     635      377      156 1
     636      741      156 1
     637      676      156 1
     638      756      157 1
     639      755      157 1
     640      391      157 1
     641      468      157 1
     642      413      158 1
     643      460      158 1
     644      757      158 1
     645      758      158 1
     646      759      159 1
     647      760      159 1
     648      378      159 1
     649      461      159 1
     650      390      160 1
     651      456      160 1
     652      743      160 1
     653      761      160 1
     654      762      161 1
     655      728      161 1
     656      405      161 1
     657      411      161 1
     658      389      162 1
     659      421      162 1
     660      763      162 1
     661      679      162 1
     662      422      163 1
     663      396      163 1
     664      406      163 1
     665      418      163 1
     666      369      164 1
     667      462      164 1
     668      409      164 1
     669      454      164 1
     670      408      165 1
     671      459      165 1
     672      398      165 1
     673      463      165 1
     674      381      166 1
     675      407      166 1
     676      423      166 1
     677      367      166 1
     678      382      167 1
     679      464      167 1
     680      404      167 1
     681      457      167 1
     682      391      168 1
     683      415      168 1
     684      393      168 1
     685      413      168 1
     686      378      169 1
     687      394      169 1
     688      390      169 1
     689      380      169 1
     690      405      170 1
     691      473      170 1
     692      421      170 1
     693      465      170 1
     694      383      171 1
     695      466      171 1
     696      418      171 1
     697      457      171 1
     698      399      172 1
     699      401      172 1
     700      409      172 1
     701      385      172 1
     702      386      173 1
     703      375      173 1
     704      398      173 1
     705      371      173 1
     706      419      174 1
     707      471      174 1
     708      423      174 1
     709      467      174 1
     710      420      175 1
     711      388      175 1
     712      404      175 1
     713      410      175 1
     714      364      176 1
     715      468      176 1
     716      413      176 1
     717      454      176 1
     718      412      177 1
     719      461      177 1
     720      390      177 1
     721      469      177 1
     722      373      178 1
     723      411      178 1
     724      421      178 1
     725      362      178 1
     726      764      179 1
     727      744      179 1
     728      422      179 1
     729      466      179 1
     730      418      180 1
     731      470      180 1
     732      765      180 1
     733      766      180 1
     734      746      181 1
     735      585      181 1
     736      401      181 1
     737      369      181 1
     738      409      182 1
     739      360      182 1
     740      642      182 1
     741      734      182 1
     742      750      183 1
     743      684      183 1
     744      386      183 1
     745      408      183 1
     746      398      184 1
     747      402      184 1
     748      767      184 1
     749      630      184 1
     750      759      185 1
     751      752      185 1
     752      381      185 1
     753      471      185 1
     754      423      186 1
     755      456      186 1
     756      768      186 1
     757      738      186 1
     758     1787      186 1
     759      769      187 1
     760      754      187 1
     761      420      187 1
     762      464      187 1
     763      404      188 1
     764      472      188 1
     765      770      188 1
     766      771      188 1
     767      756      189 1
     768      606      189 1
     769      364      189 1
     770      415      189 1
     771      413      190 1
     772      365      190 1
     773      664      190 1
     774      733      190 1
     775      705      191 1
     776      760      191 1
     777      394      191 1
     778      412      191 1
     779      390      192 1
     780      416      192 1
     781      772      192 1
     782      652      192 1
     783     2111      192 1
     784      762      193 1
     785      749      193 1
     786      373      193 1
     787      473      193 1
     788      421      194 1
     789      455      194 1
     790      773      194 1
     791      736      194 1
     792      774      195 1
     793      670      195 1
     794      436      195 1
     795      422      195 1
     796      406      196 1
     797      450      196 1
     798      723      196 1
     799      765      196 1
     800      776      197 1
     801      775      197 1
     802      478      197 1
     803      439      197 1
     804      474      198 1
     805      445      198 1
     806      778      198 1
     807      777      198 1
     808      780      199 1
     809      779      199 1
     810      408      199 1
     811      475      199 1
     812      438      200 1
     813      463      200 1
     814      781      200 1
     815      767      200 1
     816      782      201 1
     817      722      201 1
     818      451      201 1
     819      444      201 1
     820      437      202 1
     821      453      202 1
     822      783      202 1
     823      725      202 1
     824      784      203 1
     825      675      203 1
     826      428      203 1
     827      420      203 1
     828      410      204 1
     829      442      204 1
     830      771      204 1
     831      727      204 1
     832      786      205 1
     833      785      205 1
     834      431      205 1
     835      483      205 1
     836      476      206 1
     837      447      206 1
     838      788      206 1
     839      787      206 1
     840      977      206 1
     841      790      207 1
     842      789      207 1
     843      412      207 1
     844      477      207 1
     845      469      208 1
     846      430      208 1
     847      772      208 1
     848      791      208 1
     849     1517      208 1
     850      792      209 1
     851      726      209 1
     852      446      209 1
     853      443      209 1
     854      429      210 1
     855      452      210 1
     856      793      210 1
     857      729      210 1
     858      436      211 1
     859      451      211 1
     860      437      211 1
     861      450      211 1
     862      399      212 1
     863      478      212 1
     864      445      212 1
     865      458      212 1
     866      475      213 1
     867      439      213 1
     868      474      213 1
     869      438      213 1
     870      419      214 1
     871      444      214 1
     872      397      214 1
     873      453      214 1
     874      420      215 1
     875      479      215 1
     876      472      215 1
     877      442      215 1
     878      431      216 1
     879      448      216 1
     880      433      216 1
     881      447      216 1
     882      434      217 1
     883      412      217 1
     884      416      217 1
     885      430      217 1
     886      443      218 1
     887      485      218 1
     888      480      218 1
     889      452      218 1
     890      422      219 1
     891      481      219 1
     892      470      219 1
     893      450      219 1
     894      440      220 1
     895      439      220 1
     896      425      220 1
     897      445      220 1
     898      426      221 1
     899      408      221 1
     900      402      221 1
     901      438      221 1
     902      451      222 1
     903      484      222 1
     904      482      222 1
     905      453      222 1
     906      428      223 1
     907      443      223 1
     908      429      223 1
     909      442      223 1
     910      391      224 1
     911      483      224 1
     912      447      224 1
     913      460      224 1
     914      431      225 1
     915      477      225 1
     916      476      225 1
     917      430      225 1
     918      405      226 1
     919      446      226 1
     920      389      226 1
     921      452      226 1
     922      774      227 1
     923      794      227 1
     924      451      227 1
     925      481      227 1
     926      482      228 1
     927      450      228 1
     928      783      228 1
     929      795      228 1
     930     1031      228 1
     931      639      229 1
     932      776      229 1
     933      399      229 1
     934      440      229 1
     935      385      230 1
     936      445      230 1
     937      748      230 1
     938      698      230 1
     939      780      231 1
     940      695      231 1
     941      426      231 1
     942      439      231 1
     943      425      232 1
     944      438      232 1
     945      778      232 1
     946      686      232 1
     947      782      233 1
     948      796      233 1
     949      419      233 1
     950      484      233 1
     951      467      234 1
     952      453      234 1
     953      797      234 1
     954      753      234 1
     955      798      235 1
     956      784      235 1
     957      443      235 1
     958      479      235 1
     959      480      236 1
     960      442      236 1
     961      799      236 1
     962      793      236 1
     963      660      237 1
     964      786      237 1
     965      391      237 1
     966      448      237 1
     967      393      238 1
     968      447      238 1
     969      757      238 1
     970      720      238 1
     971      790      239 1
     972      716      239 1
     973      434      239 1
     974      431      239 1
     975      430      240 1
     976      433      240 1
     977      787      240 1
     978      708      240 1
     979      800      241 1
     980      792      241 1
     981      405      241 1
     982      485      241 1
     983      465      242 1
     984      452      242 1
     985      801      242 1
     986      763      242 1
     987      802      243 1
     988      739      243 1
     989      466      243 1
     990      464      243 1
     991      486      244 1
     992      457      244 1
     993      770      244 1
     994      766      244 1
     995     2219      244 1
     996      804      245 1
     997      803      245 1
     998      491      245 1
     999      495      245 1
    1000      487      246 1
    1001      499      246 1
    1002      806      246 1
    1003      805      246 1
    1004      800      247 1
    1005      807      247 1
    1006      473      247 1
    1007      488      247 1
    1008      496      248 1
    1009      465      248 1
    1010      773      248 1
    1011      808      248 1
    1012     2003      248 1
    1013      796      249 1
    1014      809      249 1
    1015      471      249 1
    1016      489      249 1
    1017      467      250 1
    1018      493      250 1
    1019      768      250 1
    1020      810      250 1
    1021     1625      250 1
    1022      466      251 1
    1023      490      251 1
    1024      470      251 1
    1025      486      251 1
    1026      468      252 1
    1027      491      252 1
    1028      499      252 1
    1029      460      252 1
    1030      488      253 1
    1031      500      253 1
    1032      492      253 1
    1033      496      253 1
    1034      461      254 1
    1035      471      254 1
    1036      493      254 1
    1037      456      254 1
    1038      464      255 1
    1039      494      255 1
    1040      472      255 1
    1041      486      255 1
    1042      462      256 1
    1043      495      256 1
    1044      499      256 1
    1045      458      256 1
    1046      473      257 1
    1047      459      257 1
    1048      496      257 1
    1049      455      257 1
    1050      489      258 1
    1051      501      258 1
    1052      493      258 1
    1053      497      258 1
    1054      802      259 1
    1055      811      259 1
    1056      490      259 1
    1057      494      259 1
    1058      486      260 1
    1059      498      260 1
    1060      813      260 1
    1061      812      260 1
    1062      731      261 1
    1063      804      261 1
    1064      468      261 1
    1065      462      261 1
    1066      499      262 1
    1067      454      262 1
    1068      747      262 1
    1069      758      262 1
    1070      779      263 1
    1071      807      263 1
    1072      459      263 1
    1073      500      263 1
    1074      496      264 1
    1075      463      264 1
    1076      814      264 1
    1077      751      264 1
    1078     1301      264 1
    1079      789      265 1
    1080      809      265 1
    1081      461      265 1
    1082      501      265 1
    1083      469      266 1
    1084      493      266 1
    1085      815      266 1
    1086      761      266 1
    1087      764      267 1
    1088      816      267 1
    1089      481      267 1
    1090      490      267 1
    1091      470      268 1
    1092      502      268 1
    1093      812      268 1
    1094      795      268 1
    1095      818      269 1
    1096      817      269 1
    1097      517      269 1
    1098      510      269 1
    1099      522      270 1
    1100      503      270 1
    1101      819      270 1
    1102      820      270 1
    1103      821      271 1
    1104      822      271 1
    1105      500      271 1
    1106      504      271 1
    1107      518      272 1
    1108      492      272 1
    1109      823      272 1
    1110      814      272 1
    1111     1733      272 1
    1112      794      273 1
    1113      824      273 1
    1114      484      273 1
    1115      505      273 1
    1116      482      274 1
    1117      511      274 1
    1118      825      274 1
    1119      797      274 1
    1120      769      275 1
    1121      826      275 1
    1122      479      275 1
    1123      494      275 1
    1124      472      276 1
    1125      506      276 1
    1126      813      276 1
    1127      799      276 1
    1128      827      277 1
    1129      828      277 1
    1130      520      277 1
    1131      513      277 1
    1132      524      278 1
    1133      507      278 1
    1134      829      278 1
    1135      830      278 1
    1136     1409      278 1
    1137      832      279 1
    1138      831      279 1
    1139      508      279 1
    1140      501      279 1
    1141      497      280 1
    1142      514      280 1
    1143      833      280 1
    1144      815      280 1
    1145      798      281 1
    1146      834      281 1
    1147      509      281 1
    1148      485      281 1
    1149      521      282 1
    1150      480      282 1
    1151      835      282 1
    1152      801      282 1
    1153      481      283 1
    1154      505      283 1
    1155      482      283 1
    1156      502      283 1
    1157      510      284 1
    1158      495      284 1
    1159      522      284 1
    1160      487      284 1
    1161      517      285 1
    1162      504      285 1
    1163      518      285 1
    1164      503      285 1
    1165      484      286 1
    1166      489      286 1
    1167      467      286 1
    1168      511      286 1
    1169      512      287 1
    1170      494      287 1
    1171      498      287 1
    1172      506      287 1
    1173      513      288 1
    1174      483      288 1
    1175      524      288 1
    1176      476      288 1
    1177      477      289 1
    1178      501      289 1
    1179      469      289 1
    1180      514      289 1
    1181      525      290 1
    1182      509      290 1
    1183      521      290 1
    1184      515      290 1
    1185      516      291 1
    1186      490      291 1
    1187      498      291 1
    1188      502      291 1
    1189      517      292 1
    1190      478      292 1
    1191      522      292 1
    1192      474      292 1
    1193      475      293 1
    1194      500      293 1
    1195      518      293 1
    1196      463      293 1
    1197      523      294 1
    1198      505      294 1
    1199      519      294 1
    1200      511      294 1
    1201      509      295 1
    1202      479      295 1
    1203      480      295 1
    1204      506      295 1
    1205      520      296 1
    1206      491      296 1
    1207      524      296 1
    1208      487      296 1
    1209      513      297 1
    1210      508      297 1
    1211      507      297 1
    1212      514      297 1
    1213      485      298 1
    1214      488      298 1
    1215      521      298 1
    1216      465      298 1
    1217      836      299 1
    1218      816      299 1
    1219      516      299 1
    1220      505      299 1
    1221      519      300 1
    1222      502      300 1
    1223      837      300 1
    1224      825      300 1
    1225      745      301 1
    1226      818      301 1
    1227      478      301 1
    1228      495      301 1
    1229      522      302 1
    1230      458      302 1
    1231      777      302 1
    1232      806      302 1
    1233      775      303 1
    1234      822      303 1
    1235      517      303 1
    1236      475      303 1
    1237      518      304 1
    1238      474      304 1
    1239      781      304 1
    1240      820      304 1
    1241      824      305 1
    1242      831      305 1
    1243      523      305 1
    1244      489      305 1
    1245      497      306 1
    1246      511      306 1
    1247      838      306 1
    1248      810      306 1
    1249      839      307 1
    1250      826      307 1
    1251      512      307 1
    1252      509      307 1
    1253      515      308 1
    1254      506      308 1
    1255      835      308 1
    1256      840      308 1
    1257     1571      308 1
    1258      755      309 1
    1259      828      309 1
    1260      483      309 1
    1261      491      309 1
    1262      524      310 1
    1263      460      310 1
    1264      805      310 1
    1265      788      310 1
    1266      785      311 1
    1267      832      311 1
    1268      513      311 1
    1269      477      311 1
    1270      476      312 1
    1271      514      312 1
    1272      829      312 1
    1273      791      312 1
    1274      821      313 1
    1275      834      313 1
    1276      525      313 1
    1277      488      313 1
    1278      521      314 1
    1279      492      314 1
    1280      841      314 1
    1281      808      314 1
    1282     1949      314 1
    1283      842      315 1
    1284      811      315 1
    1285      516      315 1
    1286      512      315 1
    1287      526      316 1
    1288      498      316 1
    1289      837      316 1
    1290      840      316 1
    1291      843      317 1
    1292      844      317 1
    1293      532      317 1
    1294      530      317 1
    1295      527      318 1
    1296      534      318 1
    1297      845      318 1
    1298      846      318 1
    1299     1247      318 1
    1300      839      319 1
    1301      847      319 1
    1302      528      319 1
    1303      525      319 1
    1304      515      320 1
    1305      533      320 1
    1306      841      320 1
    1307      848      320 1
    1308      836      321 1
    1309      849      321 1
    1310      523      321 1
    1311      529      321 1
    1312      519      322 1
    1313      531      322 1
    1314      850      322 1
    1315      838      322 1
    1316      529      323 1
    1317      516      323 1
    1318      526      323 1
    1319      519      323 1
    1320      530      324 1
    1321      520      324 1
    1322      534      324 1
    1323      507      324 1
    1324      532      325 1
    1325      528      325 1
    1326      527      325 1
    1327      533      325 1
    1328      523      326 1
    1329      508      326 1
    1330      531      326 1
    1331      497      326 1
    1332      528      327 1
    1333      512      327 1
    1334      526      327 1
    1335      515      327 1
    1336      532      328 1
    1337      510      328 1
    1338      534      328 1
    1339      503      328 1
    1340      525      329 1
    1341      504      329 1
    1342      533      329 1
    1343      492      329 1
    1344      530      330 1
    1345      529      330 1
    1346      527      330 1
    1347      531      330 1
    1348      843      331 1
    1349      842      331 1
    1350      529      331 1
    1351      528      331 1
    1352      526      332 1
    1353      527      332 1
    1354      850      332 1
    1355      848      332 1
    1356      923      332 1
    1357      803      333 1
    1358      844      333 1
    1359      520      333 1
    1360      510      333 1
    1361      534      334 1
    1362      487      334 1
    1363      819      334 1
    1364      830      334 1
    1365      817      335 1
    1366      847      335 1
    1367      532      335 1
    1368      504      335 1
    1369      533      336 1
    1370      503      336 1
    1371      823      336 1
    1372      846      336 1
    1373      827      337 1
    1374      849      337 1
    1375      530      337 1
    1376      508      337 1
    1377      531      338 1
    1378      507      338 1
    1379      833      338 1
    1380      845      338 1
    1381      868      869 1
    1382      852      851 1
    1383      871      851 1
    1384      872      851 1
    1385      873      851 1
    1386      853      852 1
    1387      874      852 1
    1388      875      852 1
    1389      854      853 1
    1390      876      853 1
    1391      877      853 1
    1392      855      854 1
    1393      878      854 1
    1394      879      854 1
    1395      856      855 1
    1396      880      855 1
    1397      881      855 1
    1398      857      856 1
    1399      882      856 1
    1400      883      856 1
    1401      858      857 1
    1402      884      857 1
    1403      885      857 1
    1404      859      858 1
    1405      886      858 1
    1406      887      858 1
    1407      860      859 1
    1408      888      859 1
    1409      861      860 1
    1410      889      860 1
    1411      862      861 1
    1412      890      861 1
    1413      891      861 1
    1414      863      862 1
    1415      892      862 1
    1416      893      862 1
    1417      864      863 1
    1418      894      863 1
    1419      895      863 1
    1420      865      864 1
    1421      896      864 1
    1422      897      864 1
    1423      866      865 1
    1424      898      865 1
    1425      899      865 1
    1426      867      866 1
    1427      900      866 1
    1428      901      866 1
    1429      868      867 1
    1430      902      867 1
    1431      903      867 1
    1432      870      868 1
    1433      904      870 1
    1434      922      923 1
    1435      906      905 1
    1436      925      905 1
    1437      926      905 1
    1438      927      905 1
    1439      907      906 1
    1440      928      906 1
    1441      929      906 1
    1442      908      907 1
    1443      930      907 1
    1444      931      907 1
    1445      909      908 1
    1446      932      908 1
    1447      933      908 1
    1448      910      909 1
    1449      934      909 1
    1450      935      909 1
    1451      911      910 1
    1452      936      910 1
    1453      937      910 1
    1454      912      911 1
    1455      938      911 1
    1456      939      911 1
    1457      913      912 1
    1458      940      912 1
    1459      941      912 1
    1460      914      913 1
    1461      942      913 1
    1462      915      914 1
    1463      943      914 1
    1464      916      915 1
    1465      944      915 1
    1466      945      915 1
    1467      917      916 1
    1468      946      916 1
    1469      947      916 1
    1470      918      917 1
    1471      948      917 1
    1472      949      917 1
    1473      919      918 1
    1474      950      918 1
    1475      951      918 1
    1476      920      919 1
    1477      952      919 1
    1478      953      919 1
    1479      921      920 1
    1480      954      920 1
    1481      955      920 1
    1482      922      921 1
    1483      956      921 1
    1484      957      921 1
    1485      924      922 1
    1486      958      924 1
    1487      976      977 1
    1488      960      959 1
    1489      979      959 1
    1490      980      959 1
    1491      981      959 1
    1492      961      960 1
    1493      982      960 1
    1494      983      960 1
    1495      962      961 1
    1496      984      961 1
    1497      985      961 1
    1498      963      962 1
    1499      986      962 1
    1500      987      962 1
    1501      964      963 1
    1502      988      963 1
    1503      989      963 1
    1504      965      964 1
    1505      990      964 1
    1506      991      964 1
    1507      966      965 1
    1508      992      965 1
    1509      993      965 1
    1510      967      966 1
    1511      994      966 1
    1512      995      966 1
    1513      968      967 1
    1514      996      967 1
    1515      969      968 1
    1516      997      968 1
    1517      970      969 1
    1518      998      969 1
    1519      999      969 1
    1520      971      970 1
    1521     1000      970 1
    1522     1001      970 1
    1523      972      971 1
    1524     1002      971 1
    1525     1003      971 1
    1526      973      972 1
    1527     1004      972 1
    1528     1005      972 1
    1529      974      973 1
    1530     1006      973 1
    1531     1007      973 1
    1532      975      974 1
    1533     1008      974 1
    1534     1009      974 1
    1535      976      975 1
    1536     1010      975 1
    1537     1011      975 1
    1538      978      976 1
    1539     1012      978 1
    1540     1030     1031 1
    1541     1014     1013 1
    1542     1033     1013 1
    1543     1034     1013 1
    1544     1035     1013 1
    1545     1015     1014 1
    1546     1036     1014 1
    1547     1037     1014 1
    1548     1016     1015 1
    1549     1038     1015 1
    1550     1039     1015 1
    1551     1017     1016 1
    1552     1040     1016 1
    1553     1041     1016 1
    1554     1018     1017 1
    1555     1042     1017 1
    1556     1043     1017 1
    1557     1019     1018 1
    1558     1044     1018 1
    1559     1045     1018 1
    1560     1020     1019 1
    1561     1046     1019 1
    1562     1047     1019 1
    1563     1021     1020 1
    1564     1048     1020 1
    1565     1049     1020 1
    1566     1022     1021 1
    1567     1050     1021 1
    1568     1023     1022 1
    1569     1051     1022 1
    1570     1024     1023 1
    1571     1052     1023 1
    1572     1053     1023 1
    1573     1025     1024 1
    1574     1054     1024 1
    1575     1055     1024 1
    1576     1026     1025 1
    1577     1056     1025 1
    1578     1057     1025 1
    1579     1027     1026 1
    1580     1058     1026 1
    1581     1059     1026 1
    1582     1028     1027 1
    1583     1060     1027 1
    1584     1061     1027 1
    1585     1029     1028 1
    1586     1062     1028 1
    1587     1063     1028 1
    1588     1030     1029 1
    1589     1064     1029 1
    1590     1065     1029 1
    1591     1032     1030 1
    1592     1066     1032 1
    1593     1084     1085 1
    1594     1068     1067 1
    1595     1087     1067 1
    1596     1088     1067 1
    1597     1089     1067 1
    1598     1069     1068 1
    1599     1090     1068 1
    1600     1091     1068 1
    1601     1070     1069 1
    1602     1092     1069 1
    1603     1093     1069 1
    1604     1071     1070 1
    1605     1094     1070 1
    1606     1095     1070 1
    1607     1072     1071 1
    1608     1096     1071 1
    1609     1097     1071 1
    1610     1073     1072 1
    1611     1098     1072 1
    1612     1099     1072 1
    1613     1074     1073 1
    1614     1100     1073 1
    1615     1101     1073 1
    1616     1075     1074 1
    1617     1102     1074 1
    1618     1103     1074 1
    1619     1076     1075 1
    1620     1104     1075 1
    1621     1077     1076 1
    1622     1105     1076 1
    1623     1078     1077 1
    1624     1106     1077 1
    1625     1107     1077 1
    1626     1079     1078 1
    1627     1108     1078 1
    1628     1109     1078 1
    1629     1080     1079 1
    1630     1110     1079 1
    1631     1111     1079 1
    1632     1081     1080 1
    1633     1112     1080 1
    1634     1113     1080 1
    1635     1082     1081 1
    1636     1114     1081 1
    1637     1115     1081 1
    1638     1083     1082 1
    1639     1116     1082 1
    1640     1117     1082 1
    1641     1084     1083 1
    1642     1118     1083 1
    1643     1119     1083 1
    1644     1086     1084 1
    1645     1120     1086 1
    1646     1138     1139 1
    1647     1122     1121 1
    1648     1141     1121 1
    1649     1142     1121 1
    1650     1143     1121 1
    1651     1123     1122 1
    1652     1144     1122 1
    1653     1145     1122 1
    1654     1124     1123 1
    1655     1146     1123 1
    1656     1147     1123 1
    1657     1125     1124 1
    1658     1148     1124 1
    1659     1149     1124 1
    1660     1126     1125 1
    1661     1150     1125 1
    1662     1151     1125 1
    1663     1127     1126 1
    1664     1152     1126 1
    1665     1153     1126 1
    1666     1128     1127 1
    1667     1154     1127 1
    1668     1155     1127 1
    1669     1129     1128 1
    1670     1156     1128 1
    1671     1157     1128 1
    1672     1130     1129 1
    1673     1158     1129 1
    1674     1131     1130 1
    1675     1159     1130 1
    1676     1132     1131 1
    1677     1160     1131 1
    1678     1161     1131 1
    1679     1133     1132 1
    1680     1162     1132 1
    1681     1163     1132 1
    1682     1134     1133 1
    1683     1164     1133 1
    1684     1165     1133 1
    1685     1135     1134 1
    1686     1166     1134 1
    1687     1167     1134 1
    1688     1136     1135 1
    1689     1168     1135 1
    1690     1169     1135 1
    1691     1137     1136 1
    1692     1170     1136 1
    1693     1171     1136 1
    1694     1138     1137 1
    1695     1172     1137 1
    1696     1173     1137 1
    1697     1140     1138 1
    1698     1174     1140 1
    1699     1192     1193 1
    1700     1176     1175 1
    1701     1195     1175 1
    1702     1196     1175 1
    1703     1197     1175 1
    1704     1177     1176 1
    1705     1198     1176 1
    1706     1199     1176 1
    1707     1178     1177 1
    1708     1200     1177 1
    1709     1201     1177 1
    1710     1179     1178 1
    1711     1202     1178 1
    1712     1203     1178 1
    1713     1180     1179 1
    1714     1204     1179 1
    1715     1205     1179 1
    1716     1181     1180 1
    1717     1206     1180 1
    1718     1207     1180 1
    1719     1182     1181 1
    1720     1208     1181 1
    1721     1209     1181 1
    1722     1183     1182 1
    1723     1210     1182 1
    1724     1211     1182 1
    1725     1184     1183 1
    1726     1212     1183 1
    1727     1185     1184 1
    1728     1213     1184 1
    1729     1186     1185 1
    1730     1214     1185 1
    1731     1215     1185 1
    1732     1187     1186 1
    1733     1216     1186 1
    1734     1217     1186 1
    1735     1188     1187 1
    1736     1218     1187 1
    1737     1219     1187 1
    1738     1189     1188 1
    1739     1220     1188 1
    1740     1221     1188 1
    1741     1190     1189 1
    1742     1222     1189 1
    1743     1223     1189 1
    1744     1191     1190 1
    1745     1224     1190 1
    1746     1225     1190 1
    1747     1192     1191 1
    1748     1226     1191 1
    1749     1227     1191 1
    1750     1194     1192 1
    1751     1228     1194 1
    1752     1246     1247 1
    1753     1230     1229 1
    1754     1249     1229 1
    1755     1250     1229 1
    1756     1251     1229 1
    1757     1231     1230 1
    1758     1252     1230 1
    1759     1253     1230 1
    1760     1232     1231 1
    1761     1254     1231 1
    1762     1255     1231 1
    1763     1233     1232 1
    1764     1256     1232 1
    1765     1257     1232 1
    1766     1234     1233 1
    1767     1258     1233 1
    1768     1259     1233 1
    1769     1235     1234 1
    1770     1260     1234 1
    1771     1261     1234 1
    1772     1236     1235 1
    1773     1262     1235 1
    1774     1263     1235 1
    1775     1237     1236 1
    1776     1264     1236 1
    1777     1265     1236 1
    1778     1238     1237 1
    1779     1266     1237 1
    1780     1239     1238 1
    1781     1267     1238 1
    1782     1240     1239 1
    1783     1268     1239 1
    1784     1269     1239 1
    1785     1241     1240 1
    1786     1270     1240 1
    1787     1271     1240 1
    1788     1242     1241 1
    1789     1272     1241 1
    1790     1273     1241 1
    1791     1243     1242 1
    1792     1274     1242 1
    1793     1275     1242 1
    1794     1244     1243 1
    1795     1276     1243 1
    1796     1277     1243 1
    1797     1245     1244 1
    1798     1278     1244 1
    1799     1279     1244 1
    1800     1246     1245 1
    1801     1280     1245 1
    1802     1281     1245 1
    1803     1248     1246 1
    1804     1282     1248 1
    1805     1300     1301 1
    1806     1284     1283 1
    1807     1303     1283 1
    1808     1304     1283 1
    1809     1305     1283 1
    1810     1285     1284 1
    1811     1306     1284 1
    1812     1307     1284 1
    1813     1286     1285 1
    1814     1308     1285 1
    1815     1309     1285 1
    1816     1287     1286 1
    1817     1310     1286 1
    1818     1311     1286 1
    1819     1288     1287 1
    1820     1312     1287 1
    1821     1313     1287 1
    1822     1289     1288 1
    1823     1314     1288 1
    1824     1315     1288 1
    1825     1290     1289 1
    1826     1316     1289 1
    1827     1317     1289 1
    1828     1291     1290 1
    1829     1318     1290 1
    1830     1319     1290 1
    1831     1292     1291 1
    1832     1320     1291 1
    1833     1293     1292 1
    1834     1321     1292 1
    1835     1294     1293 1
    1836     1322     1293 1
    1837     1323     1293 1
    1838     1295     1294 1
    1839     1324     1294 1
    1840     1325     1294 1
    1841     1296     1295 1
    1842     1326     1295 1
    1843     1327     1295 1
    1844     1297     1296 1
    1845     1328     1296 1
    1846     1329     1296 1
    1847     1298     1297 1
    1848     1330     1297 1
    1849     1331     1297 1
    1850     1299     1298 1
    1851     1332     1298 1
    1852     1333     1298 1
    1853     1300     1299 1
    1854     1334     1299 1
    1855     1335     1299 1
    1856     1302     1300 1
    1857     1336     1302 1
    1858     1354     1355 1
    1859     1338     1337 1
    1860     1357     1337 1
    1861     1358     1337 1
    1862     1359     1337 1
    1863     1339     1338 1
    1864     1360     1338 1
    1865     1361     1338 1
    1866     1340     1339 1
    1867     1362     1339 1
    1868     1363     1339 1
    1869     1341     1340 1
    1870     1364     1340 1
    1871     1365     1340 1
    1872     1342     1341 1
    1873     1366     1341 1
    1874     1367     1341 1
    1875     1343     1342 1
    1876     1368     1342 1
    1877     1369     1342 1
    1878     1344     1343 1
    1879     1370     1343 1
    1880     1371     1343 1
    1881     1345     1344 1
    1882     1372     1344 1
    1883     1373     1344 1
    1884     1346     1345 1
    1885     1374     1345 1
    1886     1347     1346 1
    1887     1375     1346 1
    1888     1348     1347 1
    1889     1376     1347 1
    1890     1377     1347 1
    1891     1349     1348 1
    1892     1378     1348 1
    1893     1379     1348 1
    1894     1350     1349 1
    1895     1380     1349 1
    1896     1381     1349 1
    1897     1351     1350 1
    1898     1382     1350 1
    1899     1383     1350 1
    1900     1352     1351 1
    1901     1384     1351 1
    1902     1385     1351 1
    1903     1353     1352 1
    1904     1386     1352 1
    1905     1387     1352 1
    1906     1354     1353 1
    1907     1388     1353 1
    1908     1389     1353 1
    1909     1356     1354 1
    1910     1390     1356 1
    1911     1408     1409 1
    1912     1392     1391 1
    1913     1411     1391 1
    1914     1412     1391 1
    1915     1413     1391 1
    1916     1393     1392 1
    1917     1414     1392 1
    1918     1415     1392 1
    1919     1394     1393 1
    1920     1416     1393 1
    1921     1417     1393 1
    1922     1395     1394 1
    1923     1418     1394 1
    1924     1419     1394 1
    1925     1396     1395 1
    1926     1420     1395 1
    1927     1421     1395 1
    1928     1397     1396 1
    1929     1422     1396 1
    1930     1423     1396 1
    1931     1398     1397 1
    1932     1424     1397 1
    1933     1425     1397 1
    1934     1399     1398 1
    1935     1426     1398 1
    1936     1427     1398 1
    1937     1400     1399 1
    1938     1428     1399 1
    1939     1401     1400 1
    1940     1429     1400 1
    1941     1402     1401 1
    1942     1430     1401 1
    1943     1431     1401 1
    1944     1403     1402 1
    1945     1432     1402 1
    1946     1433     1402 1
    1947     1404     1403 1
    1948     1434     1403 1
    1949     1435     1403 1
    1950     1405     1404 1
    1951     1436     1404 1
    1952     1437     1404 1
    1953     1406     1405 1
    1954     1438     1405 1
    1955     1439     1405 1
    1956     1407     1406 1
    1957     1440     1406 1
    1958     1441     1406 1
    1959     1408     1407 1
    1960     1442     1407 1
    1961     1443     1407 1
    1962     1410     1408 1
    1963     1444     1410 1
    1964     1462     1463 1
    1965     1446     1445 1
    1966     1465     1445 1
    1967     1466     1445 1
    1968     1467     1445 1
    1969     1447     1446 1
    1970     1468     1446 1
    1971     1469     1446 1
    1972     1448     1447 1
    1973     1470     1447 1
    1974     1471     1447 1
    1975     1449     1448 1
    1976     1472     1448 1
    1977     1473     1448 1
    1978     1450     1449 1
    1979     1474     1449 1
    1980     1475     1449 1
    1981     1451     1450 1
    1982     1476     1450 1
    1983     1477     1450 1
    1984     1452     1451 1
    1985     1478     1451 1
    1986     1479     1451 1
    1987     1453     1452 1
    1988     1480     1452 1
    1989     1481     1452 1
    1990     1454     1453 1
    1991     1482     1453 1
    1992     1455     1454 1
    1993     1483     1454 1
    1994     1456     1455 1
    1995     1484     1455 1
    1996     1485     1455 1
    1997     1457     1456 1
    1998     1486     1456 1
    1999     1487     1456 1
    2000     1458     1457 1
    2001     1488     1457 1
    2002     1489     1457 1
    2003     1459     1458 1
    2004     1490     1458 1
    2005     1491     1458 1
    2006     1460     1459 1
    2007     1492     1459 1
    2008     1493     1459 1
    2009     1461     1460 1
    2010     1494     1460 1
    2011     1495     1460 1
    2012     1462     1461 1
    2013     1496     1461 1
    2014     1497     1461 1
    2015     1464     1462 1
    2016     1498     1464 1
    2017     1516     1517 1
    2018     1500     1499 1
    2019     1519     1499 1
    2020     1520     1499 1
    2021     1521     1499 1
    2022     1501     1500 1
    2023     1522     1500 1
    2024     1523     1500 1
    2025     1502     1501 1
    2026     1524     1501 1
    2027     1525     1501 1
    2028     1503     1502 1
    2029     1526     1502 1
    2030     1527     1502 1
    2031     1504     1503 1
    2032     1528     1503 1
    2033     1529     1503 1
    2034     1505     1504 1
    2035     1530     1504 1
    2036     1531     1504 1
    2037     1506     1505 1
    2038     1532     1505 1
    2039     1533     1505 1
    2040     1507     1506 1
    2041     1534     1506 1
    2042     1535     1506 1
    2043     1508     1507 1
    2044     1536     1507 1
    2045     1509     1508 1
    2046     1537     1508 1
    2047     1510     1509 1
    2048     1538     1509 1
    2049     1539     1509 1
    2050     1511     1510 1
    2051     1540     1510 1
    2052     1541     1510 1
    2053     1512     1511 1
    2054     1542     1511 1
    2055     1543     1511 1
    2056     1513     1512 1
    2057     1544     1512 1
    2058     1545     1512 1
    2059     1514     1513 1
    2060     1546     1513 1
    2061     1547     1513 1
    2062     1515     1514 1
    2063     1548     1514 1
    2064     1549     1514 1
    2065     1516     1515 1
    2066     1550     1515 1
    2067     1551     1515 1
    2068     1518     1516 1
    2069     1552     1518 1
    2070     1570     1571 1
    2071     1554     1553 1
    2072     1573     1553 1
    2073     1574     1553 1
    2074     1575     1553 1
    2075     1555     1554 1
    2076     1576     1554 1
    2077     1577     1554 1
    2078     1556     1555 1
    2079     1578     1555 1
    2080     1579     1555 1
    2081     1557     1556 1
    2082     1580     1556 1
    2083     1581     1556 1
    2084     1558     1557 1
    2085     1582     1557 1
    2086     1583     1557 1
    2087     1559     1558 1
    2088     1584     1558 1
    2089     1585     1558 1
    2090     1560     1559 1
    2091     1586     1559 1
    2092     1587     1559 1
    2093     1561     1560 1
    2094     1588     1560 1
    2095     1589     1560 1
    2096     1562     1561 1
    2097     1590     1561 1
    2098     1563     1562 1
    2099     1591     1562 1
    2100     1564     1563 1
    2101     1592     1563 1
    2102     1593     1563 1
    2103     1565     1564 1
    2104     1594     1564 1
    2105     1595     1564 1
    2106     1566     1565 1
    2107     1596     1565 1
    2108     1597     1565 1
    2109     1567     1566 1
    2110     1598     1566 1
    2111     1599     1566 1
    2112     1568     1567 1
    2113     1600     1567 1
    2114     1601     1567 1
    2115     1569     1568 1
    2116     1602     1568 1
    2117     1603     1568 1
    2118     1570     1569 1
    2119     1604     1569 1
    2120     1605     1569 1
    2121     1572     1570 1
    2122     1606     1572 1
    2123     1624     1625 1
    2124     1608     1607 1
    2125     1627     1607 1
    2126     1628     1607 1
    2127     1629     1607 1
    2128     1609     1608 1
    2129     1630     1608 1
    2130     1631     1608 1
    2131     1610     1609 1
    2132     1632     1609 1
    2133     1633     1609 1
    2134     1611     1610 1
    2135     1634     1610 1
    2136     1635     1610 1
    2137     1612     1611 1
    2138     1636     1611 1
    2139     1637     1611 1
    2140     1613     1612 1
    2141     1638     1612 1
    2142     1639     1612 1
    2143     1614     1613 1
    2144     1640     1613 1
    2145     1641     1613 1
    2146     1615     1614 1
    2147     1642     1614 1
    2148     1643     1614 1
    2149     1616     1615 1
    2150     1644     1615 1
    2151     1617     1616 1
    2152     1645     1616 1
    2153     1618     1617 1
    2154     1646     1617 1
    2155     1647     1617 1
    2156     1619     1618 1
    2157     1648     1618 1
    2158     1649     1618 1
    2159     1620     1619 1
    2160     1650     1619 1
    2161     1651     1619 1
    2162     1621     1620 1
    2163     1652     1620 1
    2164     1653     1620 1
    2165     1622     1621 1
    2166     1654     1621 1
    2167     1655     1621 1
    2168     1623     1622 1
    2169     1656     1622 1
    2170     1657     1622 1
    2171     1624     1623 1
    2172     1658     1623 1
    2173     1659     1623 1
    2174     1626     1624 1
    2175     1660     1626 1
    2176     1678     1679 1
    2177     1662     1661 1
    2178     1681     1661 1
    2179     1682     1661 1
    2180     1683     1661 1
    2181     1663     1662 1
    2182     1684     1662 1
    2183     1685     1662 1
    2184     1664     1663 1
    2185     1686     1663 1
    2186     1687     1663 1
    2187     1665     1664 1
    2188     1688     1664 1
    2189     1689     1664 1
    2190     1666     1665 1
    2191     1690     1665 1
    2192     1691     1665 1
    2193     1667     1666 1
    2194     1692     1666 1
    2195     1693     1666 1
    2196     1668     1667 1
    2197     1694     1667 1
    2198     1695     1667 1
    2199     1669     1668 1
    2200     1696     1668 1
    2201     1697     1668 1
    2202     1670     1669 1
    2203     1698     1669 1
    2204     1671     1670 1
    2205     1699     1670 1
    2206     1672     1671 1
    2207     1700     1671 1
    2208     1701     1671 1
    2209     1673     1672 1
    2210     1702     1672 1
    2211     1703     1672 1
    2212     1674     1673 1
    2213     1704     1673 1
    2214     1705     1673 1
    2215     1675     1674 1
    2216     1706     1674 1
    2217     1707     1674 1
    2218     1676     1675 1
    2219     1708     1675 1
    2220     1709     1675 1
    2221     1677     1676 1
    2222     1710     1676 1
    2223     1711     1676 1
    2224     1678     1677 1
    2225     1712     1677 1
    2226     1713     1677 1
    2227     1680     1678 1
    2228     1714     1680 1
    2229     1732     1733 1
    2230     1716     1715 1
    2231     1735     1715 1
    2232     1736     1715 1
    2233     1737     1715 1
    2234     1717     1716 1
    2235     1738     1716 1
    2236     1739     1716 1
    2237     1718     1717 1
    2238     1740     1717 1
    2239     1741     1717 1
    2240     1719     1718 1
    2241     1742     1718 1
    2242     1743     1718 1
    2243     1720     1719 1
    2244     1744     1719 1
    2245     1745     1719 1
    2246     1721     1720 1
    2247     1746     1720 1
    2248     1747     1720 1
    2249     1722     1721 1
    2250     1748     1721 1
    2251     1749     1721 1
    2252     1723     1722 1
    2253     1750     1722 1
    2254     1751     1722 1
    2255     1724     1723 1
    2256     1752     1723 1
    2257     1725     1724 1
    2258     1753     1724 1
    2259     1726     1725 1
    2260     1754     1725 1
    2261     1755     1725 1
    2262     1727     1726 1
    2263     1756     1726 1
    2264     1757     1726 1
    2265     1728     1727 1
    2266     1758     1727 1
    2267     1759     1727 1
    2268     1729     1728 1
    2269     1760     1728 1
    2270     1761     1728 1
    2271     1730     1729 1
    2272     1762     1729 1
    2273     1763     1729 1
    2274     1731     1730 1
    2275     1764     1730 1
    2276     1765     1730 1
    2277     1732     1731 1
    2278     1766     1731 1
    2279     1767     1731 1
    2280     1734     1732 1
    2281     1768     1734 1
    2282     1786     1787 1
    2283     1770     1769 1
    2284     1789     1769 1
    2285     1790     1769 1
    2286     1791     1769 1
    2287     1771     1770 1
    2288     1792     1770 1
    2289     1793     1770 1
    2290     1772     1771 1
    2291     1794     1771 1
    2292     1795     1771 1
    2293     1773     1772 1
    2294     1796     1772 1
    2295     1797     1772 1
    2296     1774     1773 1
    2297     1798     1773 1
    2298     1799     1773 1
    2299     1775     1774 1
    2300     1800     1774 1
    2301     1801     1774 1
    2302     1776     1775 1
    2303     1802     1775 1
    2304     1803     1775 1
    2305     1777     1776 1
    2306     1804     1776 1
    2307     1805     1776 1
    2308     1778     1777 1
    2309     1806     1777 1
    2310     1779     1778 1
    2311     1807     1778 1
    2312     1780     1779 1
    2313     1808     1779 1
    2314     1809     1779 1
    2315     1781     1780 1
    2316     1810     1780 1
    2317     1811     1780 1
    2318     1782     1781 1
    2319     1812     1781 1
    2320     1813     1781 1
    2321     1783     1782 1
    2322     1814     1782 1
    2323     1815     1782 1
    2324     1784     1783 1
    2325     1816     1783 1
    2326     1817     1783 1
    2327     1785     1784 1
    2328     1818     1784 1
    2329     1819     1784 1
    2330     1786     1785 1
    2331     1820     1785 1
    2332     1821     1785 1
    2333     1788     1786 1
    2334     1822     1788 1
    2335     1840     1841 1
    2336     1824     1823 1
    2337     1843     1823 1
    2338     1844     1823 1
    2339     1845     1823 1
    2340     1825     1824 1
    2341     1846     1824 1
    2342     1847     1824 1
    2343     1826     1825 1
    2344     1848     1825 1
    2345     1849     1825 1
    2346     1827     1826 1
    2347     1850     1826 1
    2348     1851     1826 1
    2349     1828     1827 1
    2350     1852     1827 1
    2351     1853     1827 1
    2352     1829     1828 1
    2353     1854     1828 1
    2354     1855     1828 1
    2355     1830     1829 1
    2356     1856     1829 1
    2357     1857     1829 1
    2358     1831     1830 1
    2359     1858     1830 1
    2360     1859     1830 1
    2361     1832     1831 1
    2362     1860     1831 1
    2363     1833     1832 1
    2364     1861     1832 1
    2365     1834     1833 1
    2366     1862     1833 1
    2367     1863     1833 1
    2368     1835     1834 1
    2369     1864     1834 1
    2370     1865     1834 1
    2371     1836     1835 1
    2372     1866     1835 1
    2373     1867     1835 1
    2374     1837     1836 1
    2375     1868     1836 1
    2376     1869     1836 1
    2377     1838     1837 1
    2378     1870     1837 1
    2379     1871     1837 1
    2380     1839     1838 1
    2381     1872     1838 1
    2382     1873     1838 1
    2383     1840     1839 1
    2384     1874     1839 1
    2385     1875     1839 1
    2386     1842     1840 1
    2387     1876     1842 1
    2388     1894     1895 1
    2389     1878     1877 1
    2390     1897     1877 1
    2391     1898     1877 1
    2392     1899     1877 1
    2393     1879     1878 1
    2394     1900     1878 1
    2395     1901     1878 1
    2396     1880     1879 1
    2397     1902     1879 1
    2398     1903     1879 1
    2399     1881     1880 1
    2400     1904     1880 1
    2401     1905     1880 1
    2402     1882     1881 1
    2403     1906     1881 1
    2404     1907     1881 1
    2405     1883     1882 1
    2406     1908     1882 1
    2407     1909     1882 1
    2408     1884     1883 1
    2409     1910     1883 1
    2410     1911     1883 1
    2411     1885     1884 1
    2412     1912     1884 1
    2413     1913     1884 1
    2414     1886     1885 1
    2415     1914     1885 1
    2416     1887     1886 1
    2417     1915     1886 1
    2418     1888     1887 1
    2419     1916     1887 1
    2420     1917     1887 1
    2421     1889     1888 1
    2422     1918     1888 1
    2423     1919     1888 1
    2424     1890     1889 1
    2425     1920     1889 1
    2426     1921     1889 1
    2427     1891     1890 1
    2428     1922     1890 1
    2429     1923     1890 1
    2430     1892     1891 1
    2431     1924     1891 1
    2432     1925     1891 1
    2433     1893     1892 1
    2434     1926     1892 1
    2435     1927     1892 1
    2436     1894     1893 1
    2437     1928     1893 1
    2438     1929     1893 1
    2439     1896     1894 1
    2440     1930     1896 1
    2441     1948     1949 1
    2442     1932     1931 1
    2443     1951     1931 1
    2444     1952     1931 1
    2445     1953     1931 1
    2446     1933     1932 1
    2447     1954     1932 1
    2448     1955     1932 1
    2449     1934     1933 1
    2450     1956     1933 1
    2451     1957     1933 1
    2452     1935     1934 1
    2453     1958     1934 1
    2454     1959     1934 1
    2455     1936     1935 1
    2456     1960     1935 1
    2457     1961     1935 1
    2458     1937     1936 1
    2459     1962     1936 1
    2460     1963     1936 1
    2461     1938     1937 1
    2462     1964     1937 1
    2463     1965     1937 1
    2464     1939     1938 1
    2465     1966     1938 1
    2466     1967     1938 1
    2467     1940     1939 1
    2468     1968     1939 1
    2469     1941     1940 1
    2470     1969     1940 1
    2471     1942     1941 1
    2472     1970     1941 1
    2473     1971     1941 1
    2474     1943     1942 1
    2475     1972     1942 1
    2476     1973     1942 1
    2477     1944     1943 1
    2478     1974     1943 1
    2479     1975     1943 1
    2480     1945     1944 1
    2481     1976     1944 1
    2482     1977     1944 1
    2483     1946     1945 1
    2484     1978     1945 1
    2485     1979     1945 1
    2486     1947     1946 1
    2487     1980     1946 1
    2488     1981     1946 1
    2489     1948     1947 1
    2490     1982     1947 1
    2491     1983     1947 1
    2492     1950     1948 1
    2493     1984     1950 1
    2494     2002     2003 1
    2495     1986     1985 1
    2496     2005     1985 1
    2497     2006     1985 1
    2498     2007     1985 1
    2499     1987     1986 1
    2500     2008     1986 1
    2501     2009     1986 1
    2502     1988     1987 1
    2503     2010     1987 1
    2504     2011     1987 1
    2505     1989     1988 1
    2506     2012     1988 1
    2507     2013     1988 1
    2508     1990     1989 1
    2509     2014     1989 1
    2510     2015     1989 1
    2511     1991     1990 1
    2512     2016     1990 1
    2513     2017     1990 1
    2514     1992     1991 1
    2515     2018     1991 1
    2516     2019     1991 1
    2517     1993     1992 1
    2518     2020     1992 1
    2519     2021     1992 1
    2520     1994     1993 1
    2521     2022     1993 1
    2522     1995     1994 1
    2523     2023     1994 1
    2524     1996     1995 1
    2525     2024     1995 1
    2526     2025     1995 1
    2527     1997     1996 1
    2528     2026     1996 1
    2529     2027     1996 1
    2530     1998     1997 1
    2531     2028     1997 1
    2532     2029     1997 1
    2533     1999     1998 1
    2534     2030     1998 1
    2535     2031     1998 1
    2536     2000     1999 1
    2537     2032     1999 1
    2538     2033     1999 1
    2539     2001     2000 1
    2540     2034     2000 1
    2541     2035     2000 1
    2542     2002     2001 1
    2543     2036     2001 1
    2544     2037     2001 1
    2545     2004     2002 1
    2546     2038     2004 1
    2547     2056     2057 1
    2548     2040     2039 1
    2549     2059     2039 1
    2550     2060     2039 1
    2551     2061     2039 1
    2552     2041     2040 1
    2553     2062     2040 1
    2554     2063     2040 1
    2555     2042     2041 1
    2556     2064     2041 1
    2557     2065     2041 1
    2558     2043     2042 1
    2559     2066     2042 1
    2560     2067     2042 1
    2561     2044     2043 1
    2562     2068     2043 1
    2563     2069     2043 1
    2564     2045     2044 1
    2565     2070     2044 1
    2566     2071     2044 1
    2567     2046     2045 1
    2568     2072     2045 1
    2569     2073     2045 1
    2570     2047     2046 1
    2571     2074     2046 1
    2572     2075     2046 1
    2573     2048     2047 1
    2574     2076     2047 1
    2575     2049     2048 1
    2576     2077     2048 1
    2577     2050     2049 1
    2578     2078     2049 1
    2579     2079     2049 1
    2580     2051     2050 1
    2581     2080     2050 1
    2582     2081     2050 1
    2583     2052     2051 1
    2584     2082     2051 1
    2585     2083     2051 1
    2586     2053     2052 1
    2587     2084     2052 1
    2588     2085     2052 1
    2589     2054     2053 1
    2590     2086     2053 1
    2591     2087     2053 1
    2592     2055     2054 1
    2593     2088     2054 1
    2594     2089     2054 1
    2595     2056     2055 1
    2596     2090     2055 1
    2597     2091     2055 1
    2598     2058     2056 1
    2599     2092     2058 1
    2600     2110     2111 1
    2601     2094     2093 1
    2602     2113     2093 1
    2603     2114     2093 1
    2604     2115     2093 1
    2605     2095     2094 1
    2606     2116     2094 1
    2607     2117     2094 1
    2608     2096     2095 1
    2609     2118     2095 1
    2610     2119     2095 1
    2611     2097     2096 1
    2612     2120     2096 1
    2613     2121     2096 1
    2614     2098     2097 1
    2615     2122     2097 1
    2616     2123     2097 1
    2617     2099     2098 1
    2618     2124     2098 1
    2619     2125     2098 1
    2620     2100     2099 1
    2621     2126     2099 1
    2622     2127     2099 1
    2623     2101     2100 1
    2624     2128     2100 1
    2625     2129     2100 1
    2626     2102     2101 1
    2627     2130     2101 1
    2628     2103     2102 1
    2629     2131     2102 1
    2630     2104     2103 1
    2631     2132     2103 1
    2632     2133     2103 1
    2633     2105     2104 1
    2634     2134     2104 1
    2635     2135     2104 1
    2636     2106     2105 1
    2637     2136     2105 1
    2638     2137     2105 1
    2639     2107     2106 1
    2640     2138     2106 1
    2641     2139     2106 1
    2642     2108     2107 1
    2643     2140     2107 1
    2644     2141     2107 1
    2645     2109     2108 1
    2646     2142     2108 1
    2647     2143     2108 1
    2648     2110     2109 1
    2649     2144     2109 1
    2650     2145     2109 1
    2651     2112     2110 1
    2652     2146     2112 1
    2653     2164     2165 1
    2654     2148     2147 1
    2655     2167     2147 1
    2656     2168     2147 1
    2657     2169     2147 1
    2658     2149     2148 1
    2659     2170     2148 1
    2660     2171     2148 1
    2661     2150     2149 1
    2662     2172     2149 1
    2663     2173     2149 1
    2664     2151     2150 1
    2665     2174     2150 1
    2666     2175     2150 1
    2667     2152     2151 1
    2668     2176     2151 1
    2669     2177     2151 1
    2670     2153     2152 1
    2671     2178     2152 1
    2672     2179     2152 1
    2673     2154     2153 1
    2674     2180     2153 1
    2675     2181     2153 1
    2676     2155     2154 1
    2677     2182     2154 1
    2678     2183     2154 1
    2679     2156     2155 1
    2680     2184     2155 1
    2681     2157     2156 1
    2682     2185     2156 1
    2683     2158     2157 1
    2684     2186     2157 1
    2685     2187     2157 1
    2686     2159     2158 1
    2687     2188     2158 1
    2688     2189     2158 1
    2689     2160     2159 1
    2690     2190     2159 1
    2691     2191     2159 1
    2692     2161     2160 1
    2693     2192     2160 1
    2694     2193     2160 1
    2695     2162     2161 1
    2696     2194     2161 1
    2697     2195     2161 1
    2698     2163     2162 1
    2699     2196     2162 1
    2700     2197     2162 1
    2701     2164     2163 1
    2702     2198     2163 1
    2703     2199     2163 1
    2704     2166     2164 1
    2705     2200     2166 1
    2706     2218     2219 1
    2707     2202     2201 1
    2708     2221     2201 1
    2709     2222     2201 1
    2710     2223     2201 1
    2711     2203     2202 1
    2712     2224     2202 1
    2713     2225     2202 1
    2714     2204     2203 1
    2715     2226     2203 1
    2716     2227     2203 1
    2717     2205     2204 1
    2718     2228     2204 1
    2719     2229     2204 1
    2720     2206     2205 1
    2721     2230     2205 1
    2722     2231     2205 1
    2723     2207     2206 1
    2724     2232     2206 1
    2725     2233     2206 1
    2726     2208     2207 1
    2727     2234     2207 1
    2728     2235     2207 1
    2729     2209     2208 1
    2730     2236     2208 1
    2731     2237     2208 1
    2732     2210     2209 1
    2733     2238     2209 1
    2734     2211     2210 1
    2735     2239     2210 1
    2736     2212     2211 1
    2737     2240     2211 1
    2738     2241     2211 1
    2739     2213     2212 1
    2740     2242     2212 1
    2741     2243     2212 1
    2742     2214     2213 1
    2743     2244     2213 1
    2744     2245     2213 1
    2745     2215     2214 1
    2746     2246     2214 1
    2747     2247     2214 1
    2748     2216     2215 1
    2749     2248     2215 1
    2750     2249     2215 1
    2751     2217     2216 1
    2752     2250     2216 1
    2753     2251     2216 1
    2754     2218     2217 1
    2755     2252     2217 1
    2756     2253     2217 1
    2757     2220     2218 1
    2758     2254     2220 1
    2759     2272     2273 1
    2760     2256     2255 1
    2761     2275     2255 1
    2762     2276     2255 1
    2763     2277     2255 1
    2764     2257     2256 1
    2765     2278     2256 1
    2766     2279     2256 1
    2767     2258     2257 1
    2768     2280     2257 1
    2769     2281     2257 1
    2770     2259     2258 1
    2771     2282     2258 1
    2772     2283     2258 1
    2773     2260     2259 1
    2774     2284     2259 1
    2775     2285     2259 1
    2776     2261     2260 1
    2777     2286     2260 1
    2778     2287     2260 1
    2779     2262     2261 1
    2780     2288     2261 1
    2781     2289     2261 1
    2782     2263     2262 1
    2783     2290     2262 1
    2784     2291     2262 1
    2785     2264     2263 1
    2786     2292     2263 1
    2787     2265     2264 1
    2788     2293     2264 1
    2789     2266     2265 1
    2790     2294     2265 1
    2791     2295     2265 1
    2792     2267     2266 1
    2793     2296     2266 1
    2794     2297     2266 1
    2795     2268     2267 1
    2796     2298     2267 1
    2797     2299     2267 1
    2798     2269     2268 1
    2799     2300     2268 1
    2800     2301     2268 1
    2801     2270     2269 1
    2802     2302     2269 1
    2803     2303     2269 1
    2804     2271     2270 1
    2805     2304     2270 1
    2806     2305     2270 1
    2807     2272     2271 1
    2808     2306     2271 1
    2809     2307     2271 1
    2810     2274     2272 1
    2811     2308     2274 1
    2812     2326     2327 1
    2813     2310     2309 1
    2814     2329     2309 1
    2815     2330     2309 1
    2816     2331     2309 1
    2817     2311     2310 1
    2818     2332     2310 1
    2819     2333     2310 1
    2820     2312     2311 1
    2821     2334     2311 1
    2822     2335     2311 1
    2823     2313     2312 1
    2824     2336     2312 1
    2825     2337     2312 1
    2826     2314     2313 1
    2827     2338     2313 1
    2828     2339     2313 1
    2829     2315     2314 1
    2830     2340     2314 1
    2831     2341     2314 1
    2832     2316     2315 1
    2833     2342     2315 1
    2834     2343     2315 1
    2835     2317     2316 1
    2836     2344     2316 1
    2837     2345     2316 1
    2838     2318     2317 1
    2839     2346     2317 1
    2840     2319     2318 1
    2841     2347     2318 1
    2842     2320     2319 1
    2843     2348     2319 1
    2844     2349     2319 1
    2845     2321     2320 1
    2846     2350     2320 1
    2847     2351     2320 1
    2848     2322     2321 1
    2849     2352     2321 1
    2850     2353     2321 1
    2851     2323     2322 1
    2852     2354     2322 1
    2853     2355     2322 1
    2854     2324     2323 1
    2855     2356     2323 1
    2856     2357     2323 1
    2857     2325     2324 1
    2858     2358     2324 1
    2859     2359     2324 1
    2860     2326     2325 1
    2861     2360     2325 1
    2862     2361     2325 1
    2863     2328     2326 1
    2864     2362     2328 1
    2865     2900     2363 1
    2866     2897     2363 1
    2867     2899     2363 1
    2868     2898     2363 1
    2869     2901     2364 1
    2870     2701     2364 1
    2871     2903     2364 1
    2872     2902     2364 1
    2873     2906     2365 1
    2874     2904     2365 1
    2875     2905     2365 1
    2876     2704     2365 1
    2877     2910     2366 1
    2878     2907     2366 1
    2879     2909     2366 1
    2880     2908     2366 1
    2881     2913     2367 1
    2882     2911     2367 1
    2883     2912     2367 1
    2884     2703     2367 1
    2885     2917     2368 1
    2886     2914     2368 1
    2887     2916     2368 1
    2888     2915     2368 1
    2889     2921     2369 1
    2890     2918     2369 1
    2891     2920     2369 1
    2892     2919     2369 1
    2893     2924     2370 1
    2894     2702     2370 1
    2895     2923     2370 1
    2896     2922     2370 1
    2897     2898     2371 1
    2898     2709     2371 1
    2899     2925     2371 1
    2900     2701     2371 1
    2901     2926     2372 1
    2902     2703     2372 1
    2903     2917     2372 1
    2904     2710     2372 1
    2905     2899     2373 1
    2906     2705     2373 1
    2907     2927     2373 1
    2908     2701     2373 1
    2909     2928     2374 1
    2910     2704     2374 1
    2911     2910     2374 1
    2912     2706     2374 1
    2913     2929     2375 1
    2914     2900     2375 1
    2915     2709     2375 1
    2916     2705     2375 1
    2917     2713     2376 1
    2918     2701     2376 1
    2919     2931     2376 1
    2920     2930     2376 1
    2921     2934     2377 1
    2922     2932     2377 1
    2923     2933     2377 1
    2924     2709     2377 1
    2925     2925     2378 1
    2926     2715     2378 1
    2927     2935     2378 1
    2928     2930     2378 1
    2929     4203     2378 1
    2930     2937     2379 1
    2931     2936     2379 1
    2932     2716     2379 1
    2933     2926     2379 1
    2934     2940     2380 1
    2935     2710     2380 1
    2936     2938     2380 1
    2937     2939     2380 1
    2938     2943     2381 1
    2939     2941     2381 1
    2940     2723     2381 1
    2941     2942     2381 1
    2942     2944     2382 1
    2943     2711     2382 1
    2944     2946     2382 1
    2945     2945     2382 1
    2946     2947     2383 1
    2947     2949     2383 1
    2948     2948     2383 1
    2949     2712     2383 1
    2950     2952     2384 1
    2951     2722     2384 1
    2952     2951     2384 1
    2953     2950     2384 1
    2954     2955     2385 1
    2955     2953     2385 1
    2956     2954     2385 1
    2957     2705     2385 1
    2958     2927     2386 1
    2959     2717     2386 1
    2960     2931     2386 1
    2961     2956     2386 1
    2962     2957     2387 1
    2963     2958     2387 1
    2964     2718     2387 1
    2965     2928     2387 1
    2966     2961     2388 1
    2967     2706     2388 1
    2968     2960     2388 1
    2969     2959     2388 1
    2970     2962     2389 1
    2971     2964     2389 1
    2972     2728     2389 1
    2973     2963     2389 1
    2974     2965     2390 1
    2975     2708     2390 1
    2976     2967     2390 1
    2977     2966     2390 1
    2978     2968     2391 1
    2979     2970     2391 1
    2980     2969     2391 1
    2981     2707     2391 1
    2982     2973     2392 1
    2983     2727     2392 1
    2984     2972     2392 1
    2985     2971     2392 1
    2986     2732     2393 1
    2987     2933     2393 1
    2988     2974     2393 1
    2989     2715     2393 1
    2990     2716     2394 1
    2991     2975     2394 1
    2992     2940     2394 1
    2993     2733     2394 1
    2994     2942     2395 1
    2995     2704     2395 1
    2996     2907     2395 1
    2997     2711     2395 1
    2998     2920     2396 1
    2999     2712     2396 1
    3000     2952     2396 1
    3001     2702     2396 1
    3002     2720     2397 1
    3003     2705     2397 1
    3004     2717     2397 1
    3005     2713     2397 1
    3006     2728     2398 1
    3007     2714     2398 1
    3008     2724     2398 1
    3009     2708     2398 1
    3010     2721     2399 1
    3011     2709     2399 1
    3012     2713     2399 1
    3013     2715     2399 1
    3014     2719     2400 1
    3015     2723     2400 1
    3016     2711     2400 1
    3017     2729     2400 1
    3018     2741     2401 1
    3019     2954     2401 1
    3020     2976     2401 1
    3021     2717     2401 1
    3022     2718     2402 1
    3023     2977     2402 1
    3024     2961     2402 1
    3025     2742     2402 1
    3026     2963     2403 1
    3027     2703     2403 1
    3028     2914     2403 1
    3029     2708     2403 1
    3030     2919     2404 1
    3031     2707     2404 1
    3032     2973     2404 1
    3033     2702     2404 1
    3034     2934     2405 1
    3035     2978     2405 1
    3036     2721     2405 1
    3037     2732     2405 1
    3038     2736     2406 1
    3039     2715     2406 1
    3040     2979     2406 1
    3041     2980     2406 1
    3042     2957     2407 1
    3043     2943     2407 1
    3044     2719     2407 1
    3045     2704     2407 1
    3046     2706     2408 1
    3047     2711     2408 1
    3048     2909     2408 1
    3049     2981     2408 1
    3050     3717     2408 1
    3051     2955     2409 1
    3052     2982     2409 1
    3053     2720     2409 1
    3054     2741     2409 1
    3055     2717     2410 1
    3056     2739     2410 1
    3057     2984     2410 1
    3058     2983     2410 1
    3059     4689     2410 1
    3060     2936     2411 1
    3061     2964     2411 1
    3062     2703     2411 1
    3063     2714     2411 1
    3064     2710     2412 1
    3065     2708     2412 1
    3066     2915     2412 1
    3067     2985     2412 1
    3068     3501     2412 1
    3069     2986     2413 1
    3070     2988     2413 1
    3071     2732     2413 1
    3072     2987     2413 1
    3073     2974     2414 1
    3074     2746     2414 1
    3075     2979     2414 1
    3076     2989     2414 1
    3077     2991     2415 1
    3078     2990     2415 1
    3079     2748     2415 1
    3080     2975     2415 1
    3081     2994     2416 1
    3082     2733     2416 1
    3083     2992     2416 1
    3084     2993     2416 1
    3085     2995     2417 1
    3086     2997     2417 1
    3087     2749     2417 1
    3088     2996     2417 1
    3089     2998     2418 1
    3090     2765     2418 1
    3091     2999     2418 1
    3092     3000     2418 1
    3093     3001     2419 1
    3094     3003     2419 1
    3095     2763     2419 1
    3096     3002     2419 1
    3097     3006     2420 1
    3098     2747     2420 1
    3099     3005     2420 1
    3100     3004     2420 1
    3101     3009     2421 1
    3102     3007     2421 1
    3103     2741     2421 1
    3104     3008     2421 1
    3105     2976     2422 1
    3106     2754     2422 1
    3107     3010     2422 1
    3108     2984     2422 1
    3109     3012     2423 1
    3110     3011     2423 1
    3111     2756     2423 1
    3112     2977     2423 1
    3113     2742     2424 1
    3114     3015     2424 1
    3115     3013     2424 1
    3116     3014     2424 1
    3117     4257     2424 1
    3118     3018     2425 1
    3119     3016     2425 1
    3120     2757     2425 1
    3121     3017     2425 1
    3122     3019     2426 1
    3123     2779     2426 1
    3124     3020     2426 1
    3125     3021     2426 1
    3126     3555     2426 1
    3127     3022     2427 1
    3128     3024     2427 1
    3129     2777     2427 1
    3130     3023     2427 1
    3131     2755     2428 1
    3132     3027     2428 1
    3133     3025     2428 1
    3134     3026     2428 1
    3135     2762     2429 1
    3136     2987     2429 1
    3137     3028     2429 1
    3138     2746     2429 1
    3139     3029     2430 1
    3140     2748     2430 1
    3141     2994     2430 1
    3142     2764     2430 1
    3143     2723     2431 1
    3144     2996     2431 1
    3145     2944     2431 1
    3146     2765     2431 1
    3147     2763     2432 1
    3148     2948     2432 1
    3149     3006     2432 1
    3150     2722     2432 1
    3151     2750     2433 1
    3152     2741     2433 1
    3153     2754     2433 1
    3154     2739     2433 1
    3155     2757     2434 1
    3156     2773     2434 1
    3157     2751     2434 1
    3158     2779     2434 1
    3159     2758     2435 1
    3160     2732     2435 1
    3161     2736     2435 1
    3162     2746     2435 1
    3163     2749     2436 1
    3164     2769     2436 1
    3165     2759     2436 1
    3166     2765     2436 1
    3167     2776     2437 1
    3168     3008     2437 1
    3169     2754     2437 1
    3170     3030     2437 1
    3171     2756     2438 1
    3172     3031     2438 1
    3173     2778     2438 1
    3174     3015     2438 1
    3175     2728     2439 1
    3176     3017     2439 1
    3177     2965     2439 1
    3178     2779     2439 1
    3179     2777     2440 1
    3180     2969     2440 1
    3181     3027     2440 1
    3182     2727     2440 1
    3183     3032     2441 1
    3184     2988     2441 1
    3185     2758     2441 1
    3186     2762     2441 1
    3187     2768     2442 1
    3188     2746     2442 1
    3189     3033     2442 1
    3190     3034     2442 1
    3191     2997     2443 1
    3192     3035     2443 1
    3193     2769     2443 1
    3194     2723     2443 1
    3195     2765     2444 1
    3196     2729     2444 1
    3197     2946     2444 1
    3198     3036     2444 1
    3199     3009     2445 1
    3200     3037     2445 1
    3201     2750     2445 1
    3202     2776     2445 1
    3203     2754     2446 1
    3204     2772     2446 1
    3205     3038     2446 1
    3206     3039     2446 1
    3207     3825     2446 1
    3208     3018     2447 1
    3209     3040     2447 1
    3210     2728     2447 1
    3211     2773     2447 1
    3212     2779     2448 1
    3213     2724     2448 1
    3214     2966     2448 1
    3215     3041     2448 1
    3216     3042     2449 1
    3217     3044     2449 1
    3218     2762     2449 1
    3219     3043     2449 1
    3220     3028     2450 1
    3221     2786     2450 1
    3222     3033     2450 1
    3223     3045     2450 1
    3224     3046     2451 1
    3225     3047     2451 1
    3226     2788     2451 1
    3227     3029     2451 1
    3228     2764     2452 1
    3229     3050     2452 1
    3230     3048     2452 1
    3231     3049     2452 1
    3232     3053     2453 1
    3233     3051     2453 1
    3234     2789     2453 1
    3235     3052     2453 1
    3236     3054     2454 1
    3237     2803     2454 1
    3238     3056     2454 1
    3239     3055     2454 1
    3240     3059     2455 1
    3241     3057     2455 1
    3242     2802     2455 1
    3243     3058     2455 1
    3244     2787     2456 1
    3245     3062     2456 1
    3246     3060     2456 1
    3247     3061     2456 1
    3248     3231     2456 1
    3249     3065     2457 1
    3250     3063     2457 1
    3251     2776     2457 1
    3252     3064     2457 1
    3253     3030     2458 1
    3254     2794     2458 1
    3255     3039     2458 1
    3256     3066     2458 1
    3257     3067     2459 1
    3258     3068     2459 1
    3259     2796     2459 1
    3260     3031     2459 1
    3261     2778     2460 1
    3262     3071     2460 1
    3263     3069     2460 1
    3264     3070     2460 1
    3265     3074     2461 1
    3266     3072     2461 1
    3267     2797     2461 1
    3268     3073     2461 1
    3269     3075     2462 1
    3270     2811     2462 1
    3271     3076     2462 1
    3272     3077     2462 1
    3273     4419     2462 1
    3274     3078     2463 1
    3275     3080     2463 1
    3276     2810     2463 1
    3277     3079     2463 1
    3278     3083     2464 1
    3279     2795     2464 1
    3280     3081     2464 1
    3281     3082     2464 1
    3282     2789     2465 1
    3283     3043     2465 1
    3284     2786     2465 1
    3285     3054     2465 1
    3286     2788     2466 1
    3287     3058     2466 1
    3288     2787     2466 1
    3289     3050     2466 1
    3290     2749     2467 1
    3291     3052     2467 1
    3292     2998     2467 1
    3293     2803     2467 1
    3294     3002     2468 1
    3295     2802     2468 1
    3296     2747     2468 1
    3297     3062     2468 1
    3298     2790     2469 1
    3299     2776     2469 1
    3300     2772     2469 1
    3301     2794     2469 1
    3302     2797     2470 1
    3303     2808     2470 1
    3304     2791     2470 1
    3305     2811     2470 1
    3306     2798     2471 1
    3307     2762     2471 1
    3308     2768     2471 1
    3309     2786     2471 1
    3310     2789     2472 1
    3311     2806     2472 1
    3312     2799     2472 1
    3313     2803     2472 1
    3314     2797     2473 1
    3315     3064     2473 1
    3316     3075     2473 1
    3317     2794     2473 1
    3318     2796     2474 1
    3319     3079     2474 1
    3320     3071     2474 1
    3321     2795     2474 1
    3322     2757     2475 1
    3323     3073     2475 1
    3324     3019     2475 1
    3325     2811     2475 1
    3326     2810     2476 1
    3327     3023     2476 1
    3328     3083     2476 1
    3329     2755     2476 1
    3330     3084     2477 1
    3331     3044     2477 1
    3332     2798     2477 1
    3333     2789     2477 1
    3334     2786     2478 1
    3335     2799     2478 1
    3336     3085     2478 1
    3337     3056     2478 1
    3338     3086     2479 1
    3339     3053     2479 1
    3340     2749     2479 1
    3341     2806     2479 1
    3342     2759     2480 1
    3343     2803     2480 1
    3344     3000     2480 1
    3345     3087     2480 1
    3346     4635     2480 1
    3347     3065     2481 1
    3348     3088     2481 1
    3349     2797     2481 1
    3350     2790     2481 1
    3351     2791     2482 1
    3352     2794     2482 1
    3353     3089     2482 1
    3354     3076     2482 1
    3355     3447     2482 1
    3356     3074     2483 1
    3357     3090     2483 1
    3358     2757     2483 1
    3359     2808     2483 1
    3360     2751     2484 1
    3361     2811     2484 1
    3362     3020     2484 1
    3363     3091     2484 1
    3364     2929     2485 1
    3365     3092     2485 1
    3366     2721     2485 1
    3367     2720     2485 1
    3368     2713     2486 1
    3369     2734     2486 1
    3370     2980     2486 1
    3371     2983     2486 1
    3372     3093     2487 1
    3373     3094     2487 1
    3374     2731     2487 1
    3375     2726     2487 1
    3376     2738     2488 1
    3377     2816     2488 1
    3378     3095     2488 1
    3379     3096     2488 1
    3380     3097     2489 1
    3381     3040     2489 1
    3382     2735     2489 1
    3383     2714     2489 1
    3384     2724     2490 1
    3385     2730     2490 1
    3386     2985     2490 1
    3387     3098     2490 1
    3388     3099     2491 1
    3389     3035     2491 1
    3390     2719     2491 1
    3391     2743     2491 1
    3392     2725     2492 1
    3393     2729     2492 1
    3394     2981     2492 1
    3395     3100     2492 1
    3396     2721     2493 1
    3397     2745     2493 1
    3398     2734     2493 1
    3399     2736     2493 1
    3400     2726     2494 1
    3401     2707     2494 1
    3402     2727     2494 1
    3403     2738     2494 1
    3404     2737     2495 1
    3405     2735     2495 1
    3406     2730     2495 1
    3407     2817     2495 1
    3408     2718     2496 1
    3409     2719     2496 1
    3410     2706     2496 1
    3411     2725     2496 1
    3412     2720     2497 1
    3413     2744     2497 1
    3414     2734     2497 1
    3415     2739     2497 1
    3416     2731     2498 1
    3417     2712     2498 1
    3418     2722     2498 1
    3419     2738     2498 1
    3420     2716     2499 1
    3421     2714     2499 1
    3422     2710     2499 1
    3423     2730     2499 1
    3424     2740     2500 1
    3425     2743     2500 1
    3426     2725     2500 1
    3427     2818     2500 1
    3428     3101     2501 1
    3429     3092     2501 1
    3430     2745     2501 1
    3431     2744     2501 1
    3432     2734     2502 1
    3433     2819     2502 1
    3434     3102     2502 1
    3435     3103     2502 1
    3436     4041     2502 1
    3437     3094     2503 1
    3438     2918     2503 1
    3439     2707     2503 1
    3440     2712     2503 1
    3441     2738     2504 1
    3442     2702     2504 1
    3443     2972     2504 1
    3444     2950     2504 1
    3445     3097     2505 1
    3446     2990     2505 1
    3447     2716     2505 1
    3448     2737     2505 1
    3449     2730     2506 1
    3450     2733     2506 1
    3451     2938     2506 1
    3452     3104     2506 1
    3453     3099     2507 1
    3454     3011     2507 1
    3455     2718     2507 1
    3456     2740     2507 1
    3457     2725     2508 1
    3458     2742     2508 1
    3459     2960     2508 1
    3460     3105     2508 1
    3461     3106     2509 1
    3462     2978     2509 1
    3463     2745     2509 1
    3464     2758     2509 1
    3465     2780     2510 1
    3466     2736     2510 1
    3467     3102     2510 1
    3468     3034     2510 1
    3469     3108     2511 1
    3470     3107     2511 1
    3471     2761     2511 1
    3472     2824     2511 1
    3473     2771     2512 1
    3474     2820     2512 1
    3475     3109     2512 1
    3476     3110     2512 1
    3477     3112     2513 1
    3478     3111     2513 1
    3479     2737     2513 1
    3480     2821     2513 1
    3481     2760     2514 1
    3482     2817     2514 1
    3483     3104     2514 1
    3484     3113     2514 1
    3485     4527     2514 1
    3486     3086     2515 1
    3487     3114     2515 1
    3488     2781     2515 1
    3489     2769     2515 1
    3490     2759     2516 1
    3491     2785     2516 1
    3492     3115     2516 1
    3493     3036     2516 1
    3494     3116     2517 1
    3495     2982     2517 1
    3496     2750     2517 1
    3497     2744     2517 1
    3498     2766     2518 1
    3499     2739     2518 1
    3500     3103     2518 1
    3501     3038     2518 1
    3502     3118     2519 1
    3503     3117     2519 1
    3504     2753     2519 1
    3505     2830     2519 1
    3506     2775     2520 1
    3507     2822     2520 1
    3508     3119     2520 1
    3509     3120     2520 1
    3510     3121     2521 1
    3511     3122     2521 1
    3512     2740     2521 1
    3513     2823     2521 1
    3514     2752     2522 1
    3515     2818     2522 1
    3516     3105     2522 1
    3517     3123     2522 1
    3518     3124     2523 1
    3519     3090     2523 1
    3520     2767     2523 1
    3521     2773     2523 1
    3522     2751     2524 1
    3523     2783     2524 1
    3524     3125     2524 1
    3525     3041     2524 1
    3526     2784     2525 1
    3527     2758     2525 1
    3528     2768     2525 1
    3529     2780     2525 1
    3530     2731     2526 1
    3531     2824     2526 1
    3532     2771     2526 1
    3533     2816     2526 1
    3534     2770     2527 1
    3535     2821     2527 1
    3536     2760     2527 1
    3537     2825     2527 1
    3538     2743     2528 1
    3539     2769     2528 1
    3540     2785     2528 1
    3541     2729     2528 1
    3542     2744     2529 1
    3543     2826     2529 1
    3544     2766     2529 1
    3545     2819     2529 1
    3546     2753     2530 1
    3547     2777     2530 1
    3548     2755     2530 1
    3549     2775     2530 1
    3550     2740     2531 1
    3551     2756     2531 1
    3552     2752     2531 1
    3553     2742     2531 1
    3554     2767     2532 1
    3555     2835     2532 1
    3556     2783     2532 1
    3557     2827     2532 1
    3558     2745     2533 1
    3559     2828     2533 1
    3560     2780     2533 1
    3561     2819     2533 1
    3562     2761     2534 1
    3563     2763     2534 1
    3564     2771     2534 1
    3565     2747     2534 1
    3566     2748     2535 1
    3567     2737     2535 1
    3568     2760     2535 1
    3569     2733     2535 1
    3570     2781     2536 1
    3571     2833     2536 1
    3572     2785     2536 1
    3573     2829     2536 1
    3574     2782     2537 1
    3575     2750     2537 1
    3576     2766     2537 1
    3577     2772     2537 1
    3578     2726     2538 1
    3579     2830     2538 1
    3580     2775     2538 1
    3581     2816     2538 1
    3582     2774     2539 1
    3583     2823     2539 1
    3584     2752     2539 1
    3585     2831     2539 1
    3586     2735     2540 1
    3587     2773     2540 1
    3588     2783     2540 1
    3589     2724     2540 1
    3590     3126     2541 1
    3591     3106     2541 1
    3592     2784     2541 1
    3593     2828     2541 1
    3594     2780     2542 1
    3595     2832     2542 1
    3596     3127     2542 1
    3597     3128     2542 1
    3598     3108     2543 1
    3599     2947     2543 1
    3600     2763     2543 1
    3601     2731     2543 1
    3602     2771     2544 1
    3603     2722     2544 1
    3604     3004     2544 1
    3605     3096     2544 1
    3606     3112     2545 1
    3607     3046     2545 1
    3608     2748     2545 1
    3609     2770     2545 1
    3610     2760     2546 1
    3611     2764     2546 1
    3612     3129     2546 1
    3613     2992     2546 1
    3614     3121     2547 1
    3615     3114     2547 1
    3616     2743     2547 1
    3617     2833     2547 1
    3618     2785     2548 1
    3619     2818     2548 1
    3620     3130     2548 1
    3621     3100     2548 1
    3622     4149     2548 1
    3623     3131     2549 1
    3624     3116     2549 1
    3625     2782     2549 1
    3626     2826     2549 1
    3627     2766     2550 1
    3628     2834     2550 1
    3629     3132     2550 1
    3630     3133     2550 1
    3631     3118     2551 1
    3632     2968     2551 1
    3633     2726     2551 1
    3634     2777     2551 1
    3635     2775     2552 1
    3636     2727     2552 1
    3637     3026     2552 1
    3638     3095     2552 1
    3639     3067     2553 1
    3640     3122     2553 1
    3641     2756     2553 1
    3642     2774     2553 1
    3643     2752     2554 1
    3644     2778     2554 1
    3645     3134     2554 1
    3646     3014     2554 1
    3647     4473     2554 1
    3648     3124     2555 1
    3649     3111     2555 1
    3650     2735     2555 1
    3651     2835     2555 1
    3652     2783     2556 1
    3653     2817     2556 1
    3654     3135     2556 1
    3655     3098     2556 1
    3656     3136     2557 1
    3657     3032     2557 1
    3658     2798     2557 1
    3659     2784     2557 1
    3660     2768     2558 1
    3661     2812     2558 1
    3662     3085     2558 1
    3663     3127     2558 1
    3664     3138     2559 1
    3665     3137     2559 1
    3666     2840     2559 1
    3667     2801     2559 1
    3668     2836     2560 1
    3669     2807     2560 1
    3670     3140     2560 1
    3671     3139     2560 1
    3672     3142     2561 1
    3673     3141     2561 1
    3674     2770     2561 1
    3675     2837     2561 1
    3676     2800     2562 1
    3677     2825     2562 1
    3678     3143     2562 1
    3679     3129     2562 1
    3680     3144     2563 1
    3681     3084     2563 1
    3682     2813     2563 1
    3683     2806     2563 1
    3684     2799     2564 1
    3685     2815     2564 1
    3686     3145     2564 1
    3687     3087     2564 1
    3688     3146     2565 1
    3689     3037     2565 1
    3690     2790     2565 1
    3691     2782     2565 1
    3692     2772     2566 1
    3693     2804     2566 1
    3694     3133     2566 1
    3695     3089     2566 1
    3696     3148     2567 1
    3697     3147     2567 1
    3698     2793     2567 1
    3699     2845     2567 1
    3700     2838     2568 1
    3701     2809     2568 1
    3702     3150     2568 1
    3703     3149     2568 1
    3704     3339     2568 1
    3705     3152     2569 1
    3706     3151     2569 1
    3707     2774     2569 1
    3708     2839     2569 1
    3709     2831     2570 1
    3710     2792     2570 1
    3711     3134     2570 1
    3712     3153     2570 1
    3713     3879     2570 1
    3714     3154     2571 1
    3715     3088     2571 1
    3716     2808     2571 1
    3717     2805     2571 1
    3718     2791     2572 1
    3719     2814     2572 1
    3720     3155     2572 1
    3721     3091     2572 1
    3722     2798     2573 1
    3723     2813     2573 1
    3724     2799     2573 1
    3725     2812     2573 1
    3726     2761     2574 1
    3727     2840     2574 1
    3728     2807     2574 1
    3729     2820     2574 1
    3730     2837     2575 1
    3731     2801     2575 1
    3732     2836     2575 1
    3733     2800     2575 1
    3734     2781     2576 1
    3735     2806     2576 1
    3736     2759     2576 1
    3737     2815     2576 1
    3738     2782     2577 1
    3739     2841     2577 1
    3740     2834     2577 1
    3741     2804     2577 1
    3742     2793     2578 1
    3743     2810     2578 1
    3744     2795     2578 1
    3745     2809     2578 1
    3746     2796     2579 1
    3747     2774     2579 1
    3748     2778     2579 1
    3749     2792     2579 1
    3750     2805     2580 1
    3751     2847     2580 1
    3752     2842     2580 1
    3753     2814     2580 1
    3754     2784     2581 1
    3755     2843     2581 1
    3756     2832     2581 1
    3757     2812     2581 1
    3758     2802     2582 1
    3759     2801     2582 1
    3760     2787     2582 1
    3761     2807     2582 1
    3762     2788     2583 1
    3763     2770     2583 1
    3764     2764     2583 1
    3765     2800     2583 1
    3766     2813     2584 1
    3767     2846     2584 1
    3768     2844     2584 1
    3769     2815     2584 1
    3770     2790     2585 1
    3771     2805     2585 1
    3772     2791     2585 1
    3773     2804     2585 1
    3774     2753     2586 1
    3775     2845     2586 1
    3776     2809     2586 1
    3777     2822     2586 1
    3778     2793     2587 1
    3779     2839     2587 1
    3780     2838     2587 1
    3781     2792     2587 1
    3782     2767     2588 1
    3783     2808     2588 1
    3784     2751     2588 1
    3785     2814     2588 1
    3786     3136     2589 1
    3787     3156     2589 1
    3788     2813     2589 1
    3789     2843     2589 1
    3790     2844     2590 1
    3791     2812     2590 1
    3792     3145     2590 1
    3793     3157     2590 1
    3794     3393     2590 1
    3795     3001     2591 1
    3796     3138     2591 1
    3797     2761     2591 1
    3798     2802     2591 1
    3799     2747     2592 1
    3800     2807     2592 1
    3801     3110     2592 1
    3802     3060     2592 1
    3803     3142     2593 1
    3804     3057     2593 1
    3805     2788     2593 1
    3806     2801     2593 1
    3807     2787     2594 1
    3808     2800     2594 1
    3809     3140     2594 1
    3810     3048     2594 1
    3811     3144     2595 1
    3812     3158     2595 1
    3813     2781     2595 1
    3814     2846     2595 1
    3815     2829     2596 1
    3816     2815     2596 1
    3817     3159     2596 1
    3818     3115     2596 1
    3819     3160     2597 1
    3820     3146     2597 1
    3821     2805     2597 1
    3822     2841     2597 1
    3823     2842     2598 1
    3824     2804     2598 1
    3825     3161     2598 1
    3826     3155     2598 1
    3827     3022     2599 1
    3828     3148     2599 1
    3829     2753     2599 1
    3830     2810     2599 1
    3831     2755     2600 1
    3832     2809     2600 1
    3833     3119     2600 1
    3834     3082     2600 1
    3835     3152     2601 1
    3836     3078     2601 1
    3837     2796     2601 1
    3838     2793     2601 1
    3839     2792     2602 1
    3840     2795     2602 1
    3841     3149     2602 1
    3842     3070     2602 1
    3843     3162     2603 1
    3844     3154     2603 1
    3845     2767     2603 1
    3846     2847     2603 1
    3847     2827     2604 1
    3848     2814     2604 1
    3849     3163     2604 1
    3850     3125     2604 1
    3851     3164     2605 1
    3852     3101     2605 1
    3853     2828     2605 1
    3854     2826     2605 1
    3855     2848     2606 1
    3856     2819     2606 1
    3857     3132     2606 1
    3858     3128     2606 1
    3859     4581     2606 1
    3860     3166     2607 1
    3861     3165     2607 1
    3862     2853     2607 1
    3863     2857     2607 1
    3864     2849     2608 1
    3865     2861     2608 1
    3866     3168     2608 1
    3867     3167     2608 1
    3868     3162     2609 1
    3869     3169     2609 1
    3870     2835     2609 1
    3871     2850     2609 1
    3872     2858     2610 1
    3873     2827     2610 1
    3874     3135     2610 1
    3875     3170     2610 1
    3876     4365     2610 1
    3877     3158     2611 1
    3878     3171     2611 1
    3879     2833     2611 1
    3880     2851     2611 1
    3881     2829     2612 1
    3882     2855     2612 1
    3883     3130     2612 1
    3884     3172     2612 1
    3885     3987     2612 1
    3886     2828     2613 1
    3887     2852     2613 1
    3888     2832     2613 1
    3889     2848     2613 1
    3890     2830     2614 1
    3891     2853     2614 1
    3892     2861     2614 1
    3893     2822     2614 1
    3894     2850     2615 1
    3895     2862     2615 1
    3896     2854     2615 1
    3897     2858     2615 1
    3898     2823     2616 1
    3899     2833     2616 1
    3900     2855     2616 1
    3901     2818     2616 1
    3902     2826     2617 1
    3903     2856     2617 1
    3904     2834     2617 1
    3905     2848     2617 1
    3906     2824     2618 1
    3907     2857     2618 1
    3908     2861     2618 1
    3909     2820     2618 1
    3910     2835     2619 1
    3911     2821     2619 1
    3912     2858     2619 1
    3913     2817     2619 1
    3914     2851     2620 1
    3915     2863     2620 1
    3916     2855     2620 1
    3917     2859     2620 1
    3918     3164     2621 1
    3919     3173     2621 1
    3920     2852     2621 1
    3921     2856     2621 1
    3922     2848     2622 1
    3923     2860     2622 1
    3924     3175     2622 1
    3925     3174     2622 1
    3926     3093     2623 1
    3927     3166     2623 1
    3928     2830     2623 1
    3929     2824     2623 1
    3930     2861     2624 1
    3931     2816     2624 1
    3932     3109     2624 1
    3933     3120     2624 1
    3934     3141     2625 1
    3935     3169     2625 1
    3936     2821     2625 1
    3937     2862     2625 1
    3938     2858     2626 1
    3939     2825     2626 1
    3940     3176     2626 1
    3941     3113     2626 1
    3942     3663     2626 1
    3943     3151     2627 1
    3944     3171     2627 1
    3945     2823     2627 1
    3946     2863     2627 1
    3947     2831     2628 1
    3948     2855     2628 1
    3949     3177     2628 1
    3950     3123     2628 1
    3951     3126     2629 1
    3952     3178     2629 1
    3953     2843     2629 1
    3954     2852     2629 1
    3955     2832     2630 1
    3956     2864     2630 1
    3957     3174     2630 1
    3958     3157     2630 1
    3959     3180     2631 1
    3960     3179     2631 1
    3961     2879     2631 1
    3962     2872     2631 1
    3963     2884     2632 1
    3964     2865     2632 1
    3965     3181     2632 1
    3966     3182     2632 1
    3967     3183     2633 1
    3968     3184     2633 1
    3969     2862     2633 1
    3970     2866     2633 1
    3971     2880     2634 1
    3972     2854     2634 1
    3973     3185     2634 1
    3974     3176     2634 1
    3975     4095     2634 1
    3976     3156     2635 1
    3977     3186     2635 1
    3978     2846     2635 1
    3979     2867     2635 1
    3980     2844     2636 1
    3981     2873     2636 1
    3982     3187     2636 1
    3983     3159     2636 1
    3984     3131     2637 1
    3985     3188     2637 1
    3986     2841     2637 1
    3987     2856     2637 1
    3988     2834     2638 1
    3989     2868     2638 1
    3990     3175     2638 1
    3991     3161     2638 1
    3992     3189     2639 1
    3993     3190     2639 1
    3994     2882     2639 1
    3995     2875     2639 1
    3996     2886     2640 1
    3997     2869     2640 1
    3998     3191     2640 1
    3999     3192     2640 1
    4000     3771     2640 1
    4001     3194     2641 1
    4002     3193     2641 1
    4003     2870     2641 1
    4004     2863     2641 1
    4005     2859     2642 1
    4006     2876     2642 1
    4007     3195     2642 1
    4008     3177     2642 1
    4009     3160     2643 1
    4010     3196     2643 1
    4011     2871     2643 1
    4012     2847     2643 1
    4013     2883     2644 1
    4014     2842     2644 1
    4015     3197     2644 1
    4016     3163     2644 1
    4017     2843     2645 1
    4018     2867     2645 1
    4019     2844     2645 1
    4020     2864     2645 1
    4021     2872     2646 1
    4022     2857     2646 1
    4023     2884     2646 1
    4024     2849     2646 1
    4025     2879     2647 1
    4026     2866     2647 1
    4027     2880     2647 1
    4028     2865     2647 1
    4029     2846     2648 1
    4030     2851     2648 1
    4031     2829     2648 1
    4032     2873     2648 1
    4033     2874     2649 1
    4034     2856     2649 1
    4035     2860     2649 1
    4036     2868     2649 1
    4037     2875     2650 1
    4038     2845     2650 1
    4039     2886     2650 1
    4040     2838     2650 1
    4041     2839     2651 1
    4042     2863     2651 1
    4043     2831     2651 1
    4044     2876     2651 1
    4045     2887     2652 1
    4046     2871     2652 1
    4047     2883     2652 1
    4048     2877     2652 1
    4049     2878     2653 1
    4050     2852     2653 1
    4051     2860     2653 1
    4052     2864     2653 1
    4053     2879     2654 1
    4054     2840     2654 1
    4055     2884     2654 1
    4056     2836     2654 1
    4057     2837     2655 1
    4058     2862     2655 1
    4059     2880     2655 1
    4060     2825     2655 1
    4061     2885     2656 1
    4062     2867     2656 1
    4063     2881     2656 1
    4064     2873     2656 1
    4065     2871     2657 1
    4066     2841     2657 1
    4067     2842     2657 1
    4068     2868     2657 1
    4069     2882     2658 1
    4070     2853     2658 1
    4071     2886     2658 1
    4072     2849     2658 1
    4073     2875     2659 1
    4074     2870     2659 1
    4075     2869     2659 1
    4076     2876     2659 1
    4077     2847     2660 1
    4078     2850     2660 1
    4079     2883     2660 1
    4080     2827     2660 1
    4081     3198     2661 1
    4082     3178     2661 1
    4083     2878     2661 1
    4084     2867     2661 1
    4085     2881     2662 1
    4086     2864     2662 1
    4087     3199     2662 1
    4088     3187     2662 1
    4089     3107     2663 1
    4090     3180     2663 1
    4091     2840     2663 1
    4092     2857     2663 1
    4093     2884     2664 1
    4094     2820     2664 1
    4095     3139     2664 1
    4096     3168     2664 1
    4097     3137     2665 1
    4098     3184     2665 1
    4099     2879     2665 1
    4100     2837     2665 1
    4101     2880     2666 1
    4102     2836     2666 1
    4103     3143     2666 1
    4104     3182     2666 1
    4105     3186     2667 1
    4106     3193     2667 1
    4107     2885     2667 1
    4108     2851     2667 1
    4109     2859     2668 1
    4110     2873     2668 1
    4111     3200     2668 1
    4112     3172     2668 1
    4113     3201     2669 1
    4114     3188     2669 1
    4115     2874     2669 1
    4116     2871     2669 1
    4117     2877     2670 1
    4118     2868     2670 1
    4119     3197     2670 1
    4120     3202     2670 1
    4121     3933     2670 1
    4122     3117     2671 1
    4123     3190     2671 1
    4124     2845     2671 1
    4125     2853     2671 1
    4126     2886     2672 1
    4127     2822     2672 1
    4128     3167     2672 1
    4129     3150     2672 1
    4130     3147     2673 1
    4131     3194     2673 1
    4132     2875     2673 1
    4133     2839     2673 1
    4134     2838     2674 1
    4135     2876     2674 1
    4136     3191     2674 1
    4137     3153     2674 1
    4138     3183     2675 1
    4139     3196     2675 1
    4140     2887     2675 1
    4141     2850     2675 1
    4142     2883     2676 1
    4143     2854     2676 1
    4144     3203     2676 1
    4145     3170     2676 1
    4146     4311     2676 1
    4147     3204     2677 1
    4148     3173     2677 1
    4149     2878     2677 1
    4150     2874     2677 1
    4151     2888     2678 1
    4152     2860     2678 1
    4153     3199     2678 1
    4154     3202     2678 1
    4155     3205     2679 1
    4156     3206     2679 1
    4157     2894     2679 1
    4158     2892     2679 1
    4159     2889     2680 1
    4160     2896     2680 1
    4161     3207     2680 1
    4162     3208     2680 1
    4163     3609     2680 1
    4164     3201     2681 1
    4165     3209     2681 1
    4166     2890     2681 1
    4167     2887     2681 1
    4168     2877     2682 1
    4169     2895     2682 1
    4170     3203     2682 1
    4171     3210     2682 1
    4172     3198     2683 1
    4173     3211     2683 1
    4174     2885     2683 1
    4175     2891     2683 1
    4176     2881     2684 1
    4177     2893     2684 1
    4178     3212     2684 1
    4179     3200     2684 1
    4180     2891     2685 1
    4181     2878     2685 1
    4182     2888     2685 1
    4183     2881     2685 1
    4184     2892     2686 1
    4185     2882     2686 1
    4186     2896     2686 1
    4187     2869     2686 1
    4188     2894     2687 1
    4189     2890     2687 1
    4190     2889     2687 1
    4191     2895     2687 1
    4192     2885     2688 1
    4193     2870     2688 1
    4194     2893     2688 1
    4195     2859     2688 1
    4196     2890     2689 1
    4197     2874     2689 1
    4198     2888     2689 1
    4199     2877     2689 1
    4200     2894     2690 1
    4201     2872     2690 1
    4202     2896     2690 1
    4203     2865     2690 1
    4204     2887     2691 1
    4205     2866     2691 1
    4206     2895     2691 1
    4207     2854     2691 1
    4208     2892     2692 1
    4209     2891     2692 1
    4210     2889     2692 1
    4211     2893     2692 1
    4212     3205     2693 1
    4213     3204     2693 1
    4214     2891     2693 1
    4215     2890     2693 1
    4216     2888     2694 1
    4217     2889     2694 1
    4218     3212     2694 1
    4219     3210     2694 1
    4220     3285     2694 1
    4221     3165     2695 1
    4222     3206     2695 1
    4223     2882     2695 1
    4224     2872     2695 1
    4225     2896     2696 1
    4226     2849     2696 1
    4227     3181     2696 1
    4228     3192     2696 1
    4229     3179     2697 1
    4230     3209     2697 1
    4231     2894     2697 1
    4232     2866     2697 1
    4233     2895     2698 1
    4234     2865     2698 1
    4235     3185     2698 1
    4236     3208     2698 1
    4237     3189     2699 1
    4238     3211     2699 1
    4239     2892     2699 1
    4240     2870     2699 1
    4241     2893     2700 1
    4242     2869     2700 1
    4243     3195     2700 1
    4244     3207     2700 1
    4245     3230     3231 1
    4246     3214     3213 1
    4247     3233     3213 1
    4248     3234     3213 1
    4249     3235     3213 1
    4250     3215     3214 1
    4251     3236     3214 1
    4252     3237     3214 1
    4253     3216     3215 1
    4254     3238     3215 1
    4255     3239     3215 1
    4256     3217     3216 1
    4257     3240     3216 1
    4258     3241     3216 1
    4259     3218     3217 1
    4260     3242     3217 1
    4261     3243     3217 1
    4262     3219     3218 1
    4263     3244     3218 1
    4264     3245     3218 1
    4265     3220     3219 1
    4266     3246     3219 1
    4267     3247     3219 1
    4268     3221     3220 1
    4269     3248     3220 1
    4270     3249     3220 1
    4271     3222     3221 1
    4272     3250     3221 1
    4273     3223     3222 1
    4274     3251     3222 1
    4275     3224     3223 1
    4276     3252     3223 1
    4277     3253     3223 1
    4278     3225     3224 1
    4279     3254     3224 1
    4280     3255     3224 1
    4281     3226     3225 1
    4282     3256     3225 1
    4283     3257     3225 1
    4284     3227     3226 1
    4285     3258     3226 1
    4286     3259     3226 1
    4287     3228     3227 1
    4288     3260     3227 1
    4289     3261     3227 1
    4290     3229     3228 1
    4291     3262     3228 1
    4292     3263     3228 1
    4293     3230     3229 1
    4294     3264     3229 1
    4295     3265     3229 1
    4296     3232     3230 1
    4297     3266     3232 1
    4298     3284     3285 1
    4299     3268     3267 1
    4300     3287     3267 1
    4301     3288     3267 1
    4302     3289     3267 1
    4303     3269     3268 1
    4304     3290     3268 1
    4305     3291     3268 1
    4306     3270     3269 1
    4307     3292     3269 1
    4308     3293     3269 1
    4309     3271     3270 1
    4310     3294     3270 1
    4311     3295     3270 1
    4312     3272     3271 1
    4313     3296     3271 1
    4314     3297     3271 1
    4315     3273     3272 1
    4316     3298     3272 1
    4317     3299     3272 1
    4318     3274     3273 1
    4319     3300     3273 1
    4320     3301     3273 1
    4321     3275     3274 1
    4322     3302     3274 1
    4323     3303     3274 1
    4324     3276     3275 1
    4325     3304     3275 1
    4326     3277     3276 1
    4327     3305     3276 1
    4328     3278     3277 1
    4329     3306     3277 1
    4330     3307     3277 1
    4331     3279     3278 1
    4332     3308     3278 1
    4333     3309     3278 1
    4334     3280     3279 1
    4335     3310     3279 1
    4336     3311     3279 1
    4337     3281     3280 1
    4338     3312     3280 1
    4339     3313     3280 1
    4340     3282     3281 1
    4341     3314     3281 1
    4342     3315     3281 1
    4343     3283     3282 1
    4344     3316     3282 1
    4345     3317     3282 1
    4346     3284     3283 1
    4347     3318     3283 1
    4348     3319     3283 1
    4349     3286     3284 1
    4350     3320     3286 1
    4351     3338     3339 1
    4352     3322     3321 1
    4353     3341     3321 1
    4354     3342     3321 1
    4355     3343     3321 1
    4356     3323     3322 1
    4357     3344     3322 1
    4358     3345     3322 1
    4359     3324     3323 1
    4360     3346     3323 1
    4361     3347     3323 1
    4362     3325     3324 1
    4363     3348     3324 1
    4364     3349     3324 1
    4365     3326     3325 1
    4366     3350     3325 1
    4367     3351     3325 1
    4368     3327     3326 1
    4369     3352     3326 1
    4370     3353     3326 1
    4371     3328     3327 1
    4372     3354     3327 1
    4373     3355     3327 1
    4374     3329     3328 1
    4375     3356     3328 1
    4376     3357     3328 1
    4377     3330     3329 1
    4378     3358     3329 1
    4379     3331     3330 1
    4380     3359     3330 1
    4381     3332     3331 1
    4382     3360     3331 1
    4383     3361     3331 1
    4384     3333     3332 1
    4385     3362     3332 1
    4386     3363     3332 1
    4387     3334     3333 1
    4388     3364     3333 1
    4389     3365     3333 1
    4390     3335     3334 1
    4391     3366     3334 1
    4392     3367     3334 1
    4393     3336     3335 1
    4394     3368     3335 1
    4395     3369     3335 1
    4396     3337     3336 1
    4397     3370     3336 1
    4398     3371     3336 1
    4399     3338     3337 1
    4400     3372     3337 1
    4401     3373     3337 1
    4402     3340     3338 1
    4403     3374     3340 1
    4404     3392     3393 1
    4405     3376     3375 1
    4406     3395     3375 1
    4407     3396     3375 1
    4408     3397     3375 1
    4409     3377     3376 1
    4410     3398     3376 1
    4411     3399     3376 1
    4412     3378     3377 1
    4413     3400     3377 1
    4414     3401     3377 1
    4415     3379     3378 1
    4416     3402     3378 1
    4417     3403     3378 1
    4418     3380     3379 1
    4419     3404     3379 1
    4420     3405     3379 1
    4421     3381     3380 1
    4422     3406     3380 1
    4423     3407     3380 1
    4424     3382     3381 1
    4425     3408     3381 1
    4426     3409     3381 1
    4427     3383     3382 1
    4428     3410     3382 1
    4429     3411     3382 1
    4430     3384     3383 1
    4431     3412     3383 1
    4432     3385     3384 1
    4433     3413     3384 1
    4434     3386     3385 1
    4435     3414     3385 1
    4436     3415     3385 1
    4437     3387     3386 1
    4438     3416     3386 1
    4439     3417     3386 1
    4440     3388     3387 1
    4441     3418     3387 1
    4442     3419     3387 1
    4443     3389     3388 1
    4444     3420     3388 1
    4445     3421     3388 1
    4446     3390     3389 1
    4447     3422     3389 1
    4448     3423     3389 1
    4449     3391     3390 1
    4450     3424     3390 1
    4451     3425     3390 1
    4452     3392     3391 1
    4453     3426     3391 1
    4454     3427     3391 1
    4455     3394     3392 1
    4456     3428     3394 1
    4457     3446     3447 1
    4458     3430     3429 1
    4459     3449     3429 1
    4460     3450     3429 1
    4461     3451     3429 1
    4462     3431     3430 1
    4463     3452     3430 1
    4464     3453     3430 1
    4465     3432     3431 1
    4466     3454     3431 1
    4467     3455     3431 1
    4468     3433     3432 1
    4469     3456     3432 1
    4470     3457     3432 1
    4471     3434     3433 1
    4472     3458     3433 1
    4473     3459     3433 1
    4474     3435     3434 1
    4475     3460     3434 1
    4476     3461     3434 1
    4477     3436     3435 1
    4478     3462     3435 1
    4479     3463     3435 1
    4480     3437     3436 1
    4481     3464     3436 1
    4482     3465     3436 1
    4483     3438     3437 1
    4484     3466     3437 1
    4485     3439     3438 1
    4486     3467     3438 1
    4487     3440     3439 1
    4488     3468     3439 1
    4489     3469     3439 1
    4490     3441     3440 1
    4491     3470     3440 1
    4492     3471     3440 1
    4493     3442     3441 1
    4494     3472     3441 1
    4495     3473     3441 1
    4496     3443     3442 1
    4497     3474     3442 1
    4498     3475     3442 1
    4499     3444     3443 1
    4500     3476     3443 1
    4501     3477     3443 1
    4502     3445     3444 1
    4503     3478     3444 1
    4504     3479     3444 1
    4505     3446     3445 1
    4506     3480     3445 1
    4507     3481     3445 1
    4508     3448     3446 1
    4509     3482     3448 1
    4510     3500     3501 1
    4511     3484     3483 1
    4512     3503     3483 1
    4513     3504     3483 1
    4514     3505     3483 1
    4515     3485     3484 1
    4516     3506     3484 1
    4517     3507     3484 1
    4518     3486     3485 1
    4519     3508     3485 1
    4520     3509     3485 1
    4521     3487     3486 1
    4522     3510     3486 1
    4523     3511     3486 1
    4524     3488     3487 1
    4525     3512     3487 1
    4526     3513     3487 1
    4527     3489     3488 1
    4528     3514     3488 1
    4529     3515     3488 1
    4530     3490     3489 1
    4531     3516     3489 1
    4532     3517     3489 1
    4533     3491     3490 1
    4534     3518     3490 1
    4535     3519     3490 1
    4536     3492     3491 1
    4537     3520     3491 1
    4538     3493     3492 1
    4539     3521     3492 1
    4540     3494     3493 1
    4541     3522     3493 1
    4542     3523     3493 1
    4543     3495     3494 1
    4544     3524     3494 1
    4545     3525     3494 1
    4546     3496     3495 1
    4547     3526     3495 1
    4548     3527     3495 1
    4549     3497     3496 1
    4550     3528     3496 1
    4551     3529     3496 1
    4552     3498     3497 1
    4553     3530     3497 1
    4554     3531     3497 1
    4555     3499     3498 1
    4556     3532     3498 1
    4557     3533     3498 1
    4558     3500     3499 1
    4559     3534     3499 1
    4560     3535     3499 1
    4561     3502     3500 1
    4562     3536     3502 1
    4563     3554     3555 1
    4564     3538     3537 1
    4565     3557     3537 1
    4566     3558     3537 1
    4567     3559     3537 1
    4568     3539     3538 1
    4569     3560     3538 1
    4570     3561     3538 1
    4571     3540     3539 1
    4572     3562     3539 1
    4573     3563     3539 1
    4574     3541     3540 1
    4575     3564     3540 1
    4576     3565     3540 1
    4577     3542     3541 1
    4578     3566     3541 1
    4579     3567     3541 1
    4580     3543     3542 1
    4581     3568     3542 1
    4582     3569     3542 1
    4583     3544     3543 1
    4584     3570     3543 1
    4585     3571     3543 1
    4586     3545     3544 1
    4587     3572     3544 1
    4588     3573     3544 1
    4589     3546     3545 1
    4590     3574     3545 1
    4591     3547     3546 1
    4592     3575     3546 1
    4593     3548     3547 1
    4594     3576     3547 1
    4595     3577     3547 1
    4596     3549     3548 1
    4597     3578     3548 1
    4598     3579     3548 1
    4599     3550     3549 1
    4600     3580     3549 1
    4601     3581     3549 1
    4602     3551     3550 1
    4603     3582     3550 1
    4604     3583     3550 1
    4605     3552     3551 1
    4606     3584     3551 1
    4607     3585     3551 1
    4608     3553     3552 1
    4609     3586     3552 1
    4610     3587     3552 1
    4611     3554     3553 1
    4612     3588     3553 1
    4613     3589     3553 1
    4614     3556     3554 1
    4615     3590     3556 1
    4616     3608     3609 1
    4617     3592     3591 1
    4618     3611     3591 1
    4619     3612     3591 1
    4620     3613     3591 1
    4621     3593     3592 1
    4622     3614     3592 1
    4623     3615     3592 1
    4624     3594     3593 1
    4625     3616     3593 1
    4626     3617     3593 1
    4627     3595     3594 1
    4628     3618     3594 1
    4629     3619     3594 1
    4630     3596     3595 1
    4631     3620     3595 1
    4632     3621     3595 1
    4633     3597     3596 1
    4634     3622     3596 1
    4635     3623     3596 1
    4636     3598     3597 1
    4637     3624     3597 1
    4638     3625     3597 1
    4639     3599     3598 1
    4640     3626     3598 1
    4641     3627     3598 1
    4642     3600     3599 1
    4643     3628     3599 1
    4644     3601     3600 1
    4645     3629     3600 1
    4646     3602     3601 1
    4647     3630     3601 1
    4648     3631     3601 1
    4649     3603     3602 1
    4650     3632     3602 1
    4651     3633     3602 1
    4652     3604     3603 1
    4653     3634     3603 1
    4654     3635     3603 1
    4655     3605     3604 1
    4656     3636     3604 1
    4657     3637     3604 1
    4658     3606     3605 1
    4659     3638     3605 1
    4660     3639     3605 1
    4661     3607     3606 1
    4662     3640     3606 1
    4663     3641     3606 1
    4664     3608     3607 1
    4665     3642     3607 1
    4666     3643     3607 1
    4667     3610     3608 1
    4668     3644     3610 1
    4669     3662     3663 1
    4670     3646     3645 1
    4671     3665     3645 1
    4672     3666     3645 1
    4673     3667     3645 1
    4674     3647     3646 1
    4675     3668     3646 1
    4676     3669     3646 1
    4677     3648     3647 1
    4678     3670     3647 1
    4679     3671     3647 1
    4680     3649     3648 1
    4681     3672     3648 1
    4682     3673     3648 1
    4683     3650     3649 1
    4684     3674     3649 1
    4685     3675     3649 1
    4686     3651     3650 1
    4687     3676     3650 1
    4688     3677     3650 1
    4689     3652     3651 1
    4690     3678     3651 1
    4691     3679     3651 1
    4692     3653     3652 1
    4693     3680     3652 1
    4694     3681     3652 1
    4695     3654     3653 1
    4696     3682     3653 1
    4697     3655     3654 1
    4698     3683     3654 1
    4699     3656     3655 1
    4700     3684     3655 1
    4701     3685     3655 1
    4702     3657     3656 1
    4703     3686     3656 1
    4704     3687     3656 1
    4705     3658     3657 1
    4706     3688     3657 1
    4707     3689     3657 1
    4708     3659     3658 1
    4709     3690     3658 1
    4710     3691     3658 1
    4711     3660     3659 1
    4712     3692     3659 1
    4713     3693     3659 1
    4714     3661     3660 1
    4715     3694     3660 1
    4716     3695     3660 1
    4717     3662     3661 1
    4718     3696     3661 1
    4719     3697     3661 1
    4720     3664     3662 1
    4721     3698     3664 1
    4722     3716     3717 1
    4723     3700     3699 1
    4724     3719     3699 1
    4725     3720     3699 1
    4726     3721     3699 1
    4727     3701     3700 1
    4728     3722     3700 1
    4729     3723     3700 1
    4730     3702     3701 1
    4731     3724     3701 1
    4732     3725     3701 1
    4733     3703     3702 1
    4734     3726     3702 1
    4735     3727     3702 1
    4736     3704     3703 1
    4737     3728     3703 1
    4738     3729     3703 1
    4739     3705     3704 1
    4740     3730     3704 1
    4741     3731     3704 1
    4742     3706     3705 1
    4743     3732     3705 1
    4744     3733     3705 1
    4745     3707     3706 1
    4746     3734     3706 1
    4747     3735     3706 1
    4748     3708     3707 1
    4749     3736     3707 1
    4750     3709     3708 1
    4751     3737     3708 1
    4752     3710     3709 1
    4753     3738     3709 1
    4754     3739     3709 1
    4755     3711     3710 1
    4756     3740     3710 1
    4757     3741     3710 1
    4758     3712     3711 1
    4759     3742     3711 1
    4760     3743     3711 1
    4761     3713     3712 1
    4762     3744     3712 1
    4763     3745     3712 1
    4764     3714     3713 1
    4765     3746     3713 1
    4766     3747     3713 1
    4767     3715     3714 1
    4768     3748     3714 1
    4769     3749     3714 1
    4770     3716     3715 1
    4771     3750     3715 1
    4772     3751     3715 1
    4773     3718     3716 1
    4774     3752     3718 1
    4775     3770     3771 1
    4776     3754     3753 1
    4777     3773     3753 1
    4778     3774     3753 1
    4779     3775     3753 1
    4780     3755     3754 1
    4781     3776     3754 1
    4782     3777     3754 1
    4783     3756     3755 1
    4784     3778     3755 1
    4785     3779     3755 1
    4786     3757     3756 1
    4787     3780     3756 1
    4788     3781     3756 1
    4789     3758     3757 1
    4790     3782     3757 1
    4791     3783     3757 1
    4792     3759     3758 1
    4793     3784     3758 1
    4794     3785     3758 1
    4795     3760     3759 1
    4796     3786     3759 1
    4797     3787     3759 1
    4798     3761     3760 1
    4799     3788     3760 1
    4800     3789     3760 1
    4801     3762     3761 1
    4802     3790     3761 1
    4803     3763     3762 1
    4804     3791     3762 1
    4805     3764     3763 1
    4806     3792     3763 1
    4807     3793     3763 1
    4808     3765     3764 1
    4809     3794     3764 1
    4810     3795     3764 1
    4811     3766     3765 1
    4812     3796     3765 1
    4813     3797     3765 1
    4814     3767     3766 1
    4815     3798     3766 1
    4816     3799     3766 1
    4817     3768     3767 1
    4818     3800     3767 1
    4819     3801     3767 1
    4820     3769     3768 1
    4821     3802     3768 1
    4822     3803     3768 1
    4823     3770     3769 1
    4824     3804     3769 1
    4825     3805     3769 1
    4826     3772     3770 1
    4827     3806     3772 1
    4828     3824     3825 1
    4829     3808     3807 1
    4830     3827     3807 1
    4831     3828     3807 1
    4832     3829     3807 1
    4833     3809     3808 1
    4834     3830     3808 1
    4835     3831     3808 1
    4836     3810     3809 1
    4837     3832     3809 1
    4838     3833     3809 1
    4839     3811     3810 1
    4840     3834     3810 1
    4841     3835     3810 1
    4842     3812     3811 1
    4843     3836     3811 1
    4844     3837     3811 1
    4845     3813     3812 1
    4846     3838     3812 1
    4847     3839     3812 1
    4848     3814     3813 1
    4849     3840     3813 1
    4850     3841     3813 1
    4851     3815     3814 1
    4852     3842     3814 1
    4853     3843     3814 1
    4854     3816     3815 1
    4855     3844     3815 1
    4856     3817     3816 1
    4857     3845     3816 1
    4858     3818     3817 1
    4859     3846     3817 1
    4860     3847     3817 1
    4861     3819     3818 1
    4862     3848     3818 1
    4863     3849     3818 1
    4864     3820     3819 1
    4865     3850     3819 1
    4866     3851     3819 1
    4867     3821     3820 1
    4868     3852     3820 1
    4869     3853     3820 1
    4870     3822     3821 1
    4871     3854     3821 1
    4872     3855     3821 1
    4873     3823     3822 1
    4874     3856     3822 1
    4875     3857     3822 1
    4876     3824     3823 1
    4877     3858     3823 1
    4878     3859     3823 1
    4879     3826     3824 1
    4880     3860     3826 1
    4881     3878     3879 1
    4882     3862     3861 1
    4883     3881     3861 1
    4884     3882     3861 1
    4885     3883     3861 1
    4886     3863     3862 1
    4887     3884     3862 1
    4888     3885     3862 1
    4889     3864     3863 1
    4890     3886     3863 1
    4891     3887     3863 1
    4892     3865     3864 1
    4893     3888     3864 1
    4894     3889     3864 1
    4895     3866     3865 1
    4896     3890     3865 1
    4897     3891     3865 1
    4898     3867     3866 1
    4899     3892     3866 1
    4900     3893     3866 1
    4901     3868     3867 1
    4902     3894     3867 1
    4903     3895     3867 1
    4904     3869     3868 1
    4905     3896     3868 1
    4906     3897     3868 1
    4907     3870     3869 1
    4908     3898     3869 1
    4909     3871     3870 1
    4910     3899     3870 1
    4911     3872     3871 1
    4912     3900     3871 1
    4913     3901     3871 1
    4914     3873     3872 1
    4915     3902     3872 1
    4916     3903     3872 1
    4917     3874     3873 1
    4918     3904     3873 1
    4919     3905     3873 1
    4920     3875     3874 1
    4921     3906     3874 1
    4922     3907     3874 1
    4923     3876     3875 1
    4924     3908     3875 1
    4925     3909     3875 1
    4926     3877     3876 1
    4927     3910     3876 1
    4928     3911     3876 1
    4929     3878     3877 1
    4930     3912     3877 1
    4931     3913     3877 1
    4932     3880     3878 1
    4933     3914     3880 1
    4934     3932     3933 1
    4935     3916     3915 1
    4936     3935     3915 1
    4937     3936     3915 1
    4938     3937     3915 1
    4939     3917     3916 1
    4940     3938     3916 1
    4941     3939     3916 1
    4942     3918     3917 1
    4943     3940     3917 1
    4944     3941     3917 1
    4945     3919     3918 1
    4946     3942     3918 1
    4947     3943     3918 1
    4948     3920     3919 1
    4949     3944     3919 1
    4950     3945     3919 1
    4951     3921     3920 1
    4952     3946     3920 1
    4953     3947     3920 1
    4954     3922     3921 1
    4955     3948     3921 1
    4956     3949     3921 1
    4957     3923     3922 1
    4958     3950     3922 1
    4959     3951     3922 1
    4960     3924     3923 1
    4961     3952     3923 1
    4962     3925     3924 1
    4963     3953     3924 1
    4964     3926     3925 1
    4965     3954     3925 1
    4966     3955     3925 1
    4967     3927     3926 1
    4968     3956     3926 1
    4969     3957     3926 1
    4970     3928     3927 1
    4971     3958     3927 1
    4972     3959     3927 1
    4973     3929     3928 1
    4974     3960     3928 1
    4975     3961     3928 1
    4976     3930     3929 1
    4977     3962     3929 1
    4978     3963     3929 1
    4979     3931     3930 1
    4980     3964     3930 1
    4981     3965     3930 1
    4982     3932     3931 1
    4983     3966     3931 1
    4984     3967     3931 1
    4985     3934     3932 1
    4986     3968     3934 1
    4987     3986     3987 1
    4988     3970     3969 1
    4989     3989     3969 1
    4990     3990     3969 1
    4991     3991     3969 1
    4992     3971     3970 1
    4993     3992     3970 1
    4994     3993     3970 1
    4995     3972     3971 1
    4996     3994     3971 1
    4997     3995     3971 1
    4998     3973     3972 1
    4999     3996     3972 1
    5000     3997     3972 1
    5001     3974     3973 1
    5002     3998     3973 1
    5003     3999     3973 1
    5004     3975     3974 1
    5005     4000     3974 1
    5006     4001     3974 1
    5007     3976     3975 1
    5008     4002     3975 1
    5009     4003     3975 1
    5010     3977     3976 1
    5011     4004     3976 1
    5012     4005     3976 1
    5013     3978     3977 1
    5014     4006     3977 1
    5015     3979     3978 1
    5016     4007     3978 1
    5017     3980     3979 1
    5018     4008     3979 1
    5019     4009     3979 1
    5020     3981     3980 1
    5021     4010     3980 1
    5022     4011     3980 1
    5023     3982     3981 1
    5024     4012     3981 1
    5025     4013     3981 1
    5026     3983     3982 1
    5027     4014     3982 1
    5028     4015     3982 1
    5029     3984     3983 1
    5030     4016     3983 1
    5031     4017     3983 1
    5032     3985     3984 1
    5033     4018     3984 1
    5034     4019     3984 1
    5035     3986     3985 1
    5036     4020     3985 1
    5037     4021     3985 1
    5038     3988     3986 1
    5039     4022     3988 1
    5040     4040     4041 1
    5041     4024     4023 1
    5042     4043     4023 1
    5043     4044     4023 1
    5044     4045     4023 1
    5045     4025     4024 1
    5046     4046     4024 1
    5047     4047     4024 1
    5048     4026     4025 1
    5049     4048     4025 1
    5050     4049     4025 1
    5051     4027     4026 1
    5052     4050     4026 1
    5053     4051     4026 1
    5054     4028     4027 1
    5055     4052     4027 1
    5056     4053     4027 1
    5057     4029     4028 1
    5058     4054     4028 1
    5059     4055     4028 1
    5060     4030     4029 1
    5061     4056     4029 1
    5062     4057     4029 1
    5063     4031     4030 1
    5064     4058     4030 1
    5065     4059     4030 1
    5066     4032     4031 1
    5067     4060     4031 1
    5068     4033     4032 1
    5069     4061     4032 1
    5070     4034     4033 1
    5071     4062     4033 1
    5072     4063     4033 1
    5073     4035     4034 1
    5074     4064     4034 1
    5075     4065     4034 1
    5076     4036     4035 1
    5077     4066     4035 1
    5078     4067     4035 1
    5079     4037     4036 1
    5080     4068     4036 1
    5081     4069     4036 1
    5082     4038     4037 1
    5083     4070     4037 1
    5084     4071     4037 1
    5085     4039     4038 1
    5086     4072     4038 1
    5087     4073     4038 1
    5088     4040     4039 1
    5089     4074     4039 1
    5090     4075     4039 1
    5091     4042     4040 1
    5092     4076     4042 1
    5093     4094     4095 1
    5094     4078     4077 1
    5095     4097     4077 1
    5096     4098     4077 1
    5097     4099     4077 1
    5098     4079     4078 1
    5099     4100     4078 1
    5100     4101     4078 1
    5101     4080     4079 1
    5102     4102     4079 1
    5103     4103     4079 1
    5104     4081     4080 1
    5105     4104     4080 1
    5106     4105     4080 1
    5107     4082     4081 1
    5108     4106     4081 1
    5109     4107     4081 1
    5110     4083     4082 1
    5111     4108     4082 1
    5112     4109     4082 1
    5113     4084     4083 1
    5114     4110     4083 1
    5115     4111     4083 1
    5116     4085     4084 1
    5117     4112     4084 1
    5118     4113     4084 1
    5119     4086     4085 1
    5120     4114     4085 1
    5121     4087     4086 1
    5122     4115     4086 1
    5123     4088     4087 1
    5124     4116     4087 1
    5125     4117     4087 1
    5126     4089     4088 1
    5127     4118     4088 1
    5128     4119     4088 1
    5129     4090     4089 1
    5130     4120     4089 1
    5131     4121     4089 1
    5132     4091     4090 1
    5133     4122     4090 1
    5134     4123     4090 1
    5135     4092     4091 1
    5136     4124     4091 1
    5137     4125     4091 1
    5138     4093     4092 1
    5139     4126     4092 1
    5140     4127     4092 1
    5141     4094     4093 1
    5142     4128     4093 1
    5143     4129     4093 1
    5144     4096     4094 1
    5145     4130     4096 1
    5146     4148     4149 1
    5147     4132     4131 1
    5148     4151     4131 1
    5149     4152     4131 1
    5150     4153     4131 1
    5151     4133     4132 1
    5152     4154     4132 1
    5153     4155     4132 1
    5154     4134     4133 1
    5155     4156     4133 1
    5156     4157     4133 1
    5157     4135     4134 1
    5158     4158     4134 1
    5159     4159     4134 1
    5160     4136     4135 1
    5161     4160     4135 1
    5162     4161     4135 1
    5163     4137     4136 1
    5164     4162     4136 1
    5165     4163     4136 1
    5166     4138     4137 1
    5167     4164     4137 1
    5168     4165     4137 1
    5169     4139     4138 1
    5170     4166     4138 1
    5171     4167     4138 1
    5172     4140     4139 1
    5173     4168     4139 1
    5174     4141     4140 1
    5175     4169     4140 1
    5176     4142     4141 1
    5177     4170     4141 1
    5178     4171     4141 1
    5179     4143     4142 1
    5180     4172     4142 1
    5181     4173     4142 1
    5182     4144     4143 1
    5183     4174     4143 1
    5184     4175     4143 1
    5185     4145     4144 1
    5186     4176     4144 1
    5187     4177     4144 1
    5188     4146     4145 1
    5189     4178     4145 1
    5190     4179     4145 1
    5191     4147     4146 1
    5192     4180     4146 1
    5193     4181     4146 1
    5194     4148     4147 1
    5195     4182     4147 1
    5196     4183     4147 1
    5197     4150     4148 1
    5198     4184     4150 1
    5199     4202     4203 1
    5200     4186     4185 1
    5201     4205     4185 1
    5202     4206     4185 1
    5203     4207     4185 1
    5204     4187     4186 1
    5205     4208     4186 1
    5206     4209     4186 1
    5207     4188     4187 1
    5208     4210     4187 1
    5209     4211     4187 1
    5210     4189     4188 1
    5211     4212     4188 1
    5212     4213     4188 1
    5213     4190     4189 1
    5214     4214     4189 1
    5215     4215     4189 1
    5216     4191     4190 1
    5217     4216     4190 1
    5218     4217     4190 1
    5219     4192     4191 1
    5220     4218     4191 1
    5221     4219     4191 1
    5222     4193     4192 1
    5223     4220     4192 1
    5224     4221     4192 1
    5225     4194     4193 1
    5226     4222     4193 1
    5227     4195     4194 1
    5228     4223     4194 1
    5229     4196     4195 1
    5230     4224     4195 1
    5231     4225     4195 1
    5232     4197     4196 1
    5233     4226     4196 1
    5234     4227     4196 1
    5235     4198     4197 1
    5236     4228     4197 1
    5237     4229     4197 1
    5238     4199     4198 1
    5239     4230     4198 1
    5240     4231     4198 1
    5241     4200     4199 1
    5242     4232     4199 1
    5243     4233     4199 1
    5244     4201     4200 1
    5245     4234     4200 1
    5246     4235     4200 1
    5247     4202     4201 1
    5248     4236     4201 1
    5249     4237     4201 1
    5250     4204     4202 1
    5251     4238     4204 1
    5252     4256     4257 1
    5253     4240     4239 1
    5254     4259     4239 1
    5255     4260     4239 1
    5256     4261     4239 1
    5257     4241     4240 1
    5258     4262     4240 1
    5259     4263     4240 1
    5260     4242     4241 1
    5261     4264     4241 1
    5262     4265     4241 1
    5263     4243     4242 1
    5264     4266     4242 1
    5265     4267     4242 1
    5266     4244     4243 1
    5267     4268     4243 1
    5268     4269     4243 1
    5269     4245     4244 1
    5270     4270     4244 1
    5271     4271     4244 1
    5272     4246     4245 1
    5273     4272     4245 1
    5274     4273     4245 1
    5275     4247     4246 1
    5276     4274     4246 1
    5277     4275     4246 1
    5278     4248     4247 1
    5279     4276     4247 1
    5280     4249     4248 1
    5281     4277     4248 1
    5282     4250     4249 1
    5283     4278     4249 1
    5284     4279     4249 1
    5285     4251     4250 1
    5286     4280     4250 1
    5287     4281     4250 1
    5288     4252     4251 1
    5289     4282     4251 1
    5290     4283     4251 1
    5291     4253     4252 1
    5292     4284     4252 1
    5293     4285     4252 1
    5294     4254     4253 1
    5295     4286     4253 1
    5296     4287     4253 1
    5297     4255     4254 1
    5298     4288     4254 1
    5299     4289     4254 1
    5300     4256     4255 1
    5301     4290     4255 1
    5302     4291     4255 1
    5303     4258     4256 1
    5304     4292     4258 1
    5305     4310     4311 1
    5306     4294     4293 1
    5307     4313     4293 1
    5308     4314     4293 1
    5309     4315     4293 1
    5310     4295     4294 1
    5311     4316     4294 1
    5312     4317     4294 1
    5313     4296     4295 1
    5314     4318     4295 1
    5315     4319     4295 1
    5316     4297     4296 1
    5317     4320     4296 1
    5318     4321     4296 1
    5319     4298     4297 1
    5320     4322     4297 1
    5321     4323     4297 1
    5322     4299     4298 1
    5323     4324     4298 1
    5324     4325     4298 1
    5325     4300     4299 1
    5326     4326     4299 1
    5327     4327     4299 1
    5328     4301     4300 1
    5329     4328     4300 1
    5330     4329     4300 1
    5331     4302     4301 1
    5332     4330     4301 1
    5333     4303     4302 1
    5334     4331     4302 1
    5335     4304     4303 1
    5336     4332     4303 1
    5337     4333     4303 1
    5338     4305     4304 1
    5339     4334     4304 1
    5340     4335     4304 1
    5341     4306     4305 1
    5342     4336     4305 1
    5343     4337     4305 1
    5344     4307     4306 1
    5345     4338     4306 1
    5346     4339     4306 1
    5347     4308     4307 1
    5348     4340     4307 1
    5349     4341     4307 1
    5350     4309     4308 1
    5351     4342     4308 1
    5352     4343     4308 1
    5353     4310     4309 1
    5354     4344     4309 1
    5355     4345     4309 1
    5356     4312     4310 1
    5357     4346     4312 1
    5358     4364     4365 1
    5359     4348     4347 1
    5360     4367     4347 1
    5361     4368     4347 1
    5362     4369     4347 1
    5363     4349     4348 1
    5364     4370     4348 1
    5365     4371     4348 1
    5366     4350     4349 1
    5367     4372     4349 1
    5368     4373     4349 1
    5369     4351     4350 1
    5370     4374     4350 1
    5371     4375     4350 1
    5372     4352     4351 1
    5373     4376     4351 1
    5374     4377     4351 1
    5375     4353     4352 1
    5376     4378     4352 1
    5377     4379     4352 1
    5378     4354     4353 1
    5379     4380     4353 1
    5380     4381     4353 1
    5381     4355     4354 1
    5382     4382     4354 1
    5383     4383     4354 1
    5384     4356     4355 1
    5385     4384     4355 1
    5386     4357     4356 1
    5387     4385     4356 1
    5388     4358     4357 1
    5389     4386     4357 1
    5390     4387     4357 1
    5391     4359     4358 1
    5392     4388     4358 1
    5393     4389     4358 1
    5394     4360     4359 1
    5395     4390     4359 1
    5396     4391     4359 1
    5397     4361     4360 1
    5398     4392     4360 1
    5399     4393     4360 1
    5400     4362     4361 1
    5401     4394     4361 1
    5402     4395     4361 1
    5403     4363     4362 1
    5404     4396     4362 1
    5405     4397     4362 1
    5406     4364     4363 1
    5407     4398     4363 1
    5408     4399     4363 1
    5409     4366     4364 1
    5410     4400     4366 1
    5411     4418     4419 1
    5412     4402     4401 1
    5413     4421     4401 1
    5414     4422     4401 1
    5415     4423     4401 1
    5416     4403     4402 1
    5417     4424     4402 1
    5418     4425     4402 1
    5419     4404     4403 1
    5420     4426     4403 1
    5421     4427     4403 1
    5422     4405     4404 1
    5423     4428     4404 1
    5424     4429     4404 1
    5425     4406     4405 1
    5426     4430     4405 1
    5427     4431     4405 1
    5428     4407     4406 1
    5429     4432     4406 1
    5430     4433     4406 1
    5431     4408     4407 1
    5432     4434     4407 1
    5433     4435     4407 1
    5434     4409     4408 1
    5435     4436     4408 1
    5436     4437     4408 1
    5437     4410     4409 1
    5438     4438     4409 1
    5439     4411     4410 1
    5440     4439     4410 1
    5441     4412     4411 1
    5442     4440     4411 1
    5443     4441     4411 1
    5444     4413     4412 1
    5445     4442     4412 1
    5446     4443     4412 1
    5447     4414     4413 1
    5448     4444     4413 1
    5449     4445     4413 1
    5450     4415     4414 1
    5451     4446     4414 1
    5452     4447     4414 1
    5453     4416     4415 1
    5454     4448     4415 1
    5455     4449     4415 1
    5456     4417     4416 1
    5457     4450     4416 1
    5458     4451     4416 1
    5459     4418     4417 1
    5460     4452     4417 1
    5461     4453     4417 1
    5462     4420     4418 1
    5463     4454     4420 1
    5464     4472     4473 1
    5465     4456     4455 1
    5466     4475     4455 1
    5467     4476     4455 1
    5468     4477     4455 1
    5469     4457     4456 1
    5470     4478     4456 1
    5471     4479     4456 1
    5472     4458     4457 1
    5473     4480     4457 1
    5474     4481     4457 1
    5475     4459     4458 1
    5476     4482     4458 1
    5477     4483     4458 1
    5478     4460     4459 1
    5479     4484     4459 1
    5480     4485     4459 1
    5481     4461     4460 1
    5482     4486     4460 1
    5483     4487     4460 1
    5484     4462     4461 1
    5485     4488     4461 1
    5486     4489     4461 1
    5487     4463     4462 1
    5488     4490     4462 1
    5489     4491     4462 1
    5490     4464     4463 1
    5491     4492     4463 1
    5492     4465     4464 1
    5493     4493     4464 1
    5494     4466     4465 1
    5495     4494     4465 1
    5496     4495     4465 1
    5497     4467     4466 1
    5498     4496     4466 1
    5499     4497     4466 1
    5500     4468     4467 1
    5501     4498     4467 1
    5502     4499     4467 1
    5503     4469     4468 1
    5504     4500     4468 1
    5505     4501     4468 1
    5506     4470     4469 1
    5507     4502     4469 1
    5508     4503     4469 1
    5509     4471     4470 1
    5510     4504     4470 1
    5511     4505     4470 1
    5512     4472     4471 1
    5513     4506     4471 1
    5514     4507     4471 1
    5515     4474     4472 1
    5516     4508     4474 1
    5517     4526     4527 1
    5518     4510     4509 1
    5519     4529     4509 1
    5520     4530     4509 1
    5521     4531     4509 1
    5522     4511     4510 1
    5523     4532     4510 1
    5524     4533     4510 1
    5525     4512     4511 1
    5526     4534     4511 1
    5527     4535     4511 1
    5528     4513     4512 1
    5529     4536     4512 1
    5530     4537     4512 1
    5531     4514     4513 1
    5532     4538     4513 1
    5533     4539     4513 1
    5534     4515     4514 1
    5535     4540     4514 1
    5536     4541     4514 1
    5537     4516     4515 1
    5538     4542     4515 1
    5539     4543     4515 1
    5540     4517     4516 1
    5541     4544     4516 1
    5542     4545     4516 1
    5543     4518     4517 1
    5544     4546     4517 1
    5545     4519     4518 1
    5546     4547     4518 1
    5547     4520     4519 1
    5548     4548     4519 1
    5549     4549     4519 1
    5550     4521     4520 1
    5551     4550     4520 1
    5552     4551     4520 1
    5553     4522     4521 1
    5554     4552     4521 1
    5555     4553     4521 1
    5556     4523     4522 1
    5557     4554     4522 1
    5558     4555     4522 1
    5559     4524     4523 1
    5560     4556     4523 1
    5561     4557     4523 1
    5562     4525     4524 1
    5563     4558     4524 1
    5564     4559     4524 1
    5565     4526     4525 1
    5566     4560     4525 1
    5567     4561     4525 1
    5568     4528     4526 1
    5569     4562     4528 1
    5570     4580     4581 1
    5571     4564     4563 1
    5572     4583     4563 1
    5573     4584     4563 1
    5574     4585     4563 1
    5575     4565     4564 1
    5576     4586     4564 1
    5577     4587     4564 1
    5578     4566     4565 1
    5579     4588     4565 1
    5580     4589     4565 1
    5581     4567     4566 1
    5582     4590     4566 1
    5583     4591     4566 1
    5584     4568     4567 1
    5585     4592     4567 1
    5586     4593     4567 1
    5587     4569     4568 1
    5588     4594     4568 1
    5589     4595     4568 1
    5590     4570     4569 1
    5591     4596     4569 1
    5592     4597     4569 1
    5593     4571     4570 1
    5594     4598     4570 1
    5595     4599     4570 1
    5596     4572     4571 1
    5597     4600     4571 1
    5598     4573     4572 1
    5599     4601     4572 1
    5600     4574     4573 1
    5601     4602     4573 1
    5602     4603     4573 1
    5603     4575     4574 1
    5604     4604     4574 1
    5605     4605     4574 1
    5606     4576     4575 1
    5607     4606     4575 1
    5608     4607     4575 1
    5609     4577     4576 1
    5610     4608     4576 1
    5611     4609     4576 1
    5612     4578     4577 1
    5613     4610     4577 1
    5614     4611     4577 1
    5615     4579     4578 1
    5616     4612     4578 1
    5617     4613     4578 1
    5618     4580     4579 1
    5619     4614     4579 1
    5620     4615     4579 1
    5621     4582     4580 1
    5622     4616     4582 1
    5623     4634     4635 1
    5624     4618     4617 1
    5625     4637     4617 1
    5626     4638     4617 1
    5627     4639     4617 1
    5628     4619     4618 1
    5629     4640     4618 1
    5630     4641     4618 1
    5631     4620     4619 1
    5632     4642     4619 1
    5633     4643     4619 1
    5634     4621     4620 1
    5635     4644     4620 1
    5636     4645     4620 1
    5637     4622     4621 1
    5638     4646     4621 1
    5639     4647     4621 1
    5640     4623     4622 1
    5641     4648     4622 1
    5642     4649     4622 1
    5643     4624     4623 1
    5644     4650     4623 1
    5645     4651     4623 1
    5646     4625     4624 1
    5647     4652     4624 1
    5648     4653     4624 1
    5649     4626     4625 1
    5650     4654     4625 1
    5651     4627     4626 1
    5652     4655     4626 1
    5653     4628     4627 1
    5654     4656     4627 1
    5655     4657     4627 1
    5656     4629     4628 1
    5657     4658     4628 1
    5658     4659     4628 1
    5659     4630     4629 1
    5660     4660     4629 1
    5661     4661     4629 1
    5662     4631     4630 1
    5663     4662     4630 1
    5664     4663     4630 1
    5665     4632     4631 1
    5666     4664     4631 1
    5667     4665     4631 1
    5668     4633     4632 1
    5669     4666     4632 1
    5670     4667     4632 1
    5671     4634     4633 1
    5672     4668     4633 1
    5673     4669     4633 1
    5674     4636     4634 1
    5675     4670     4636 1
    5676     4688     4689 1
    5677     4672     4671 1
    5678     4691     4671 1
    5679     4692     4671 1
    5680     4693     4671 1
    5681     4673     4672 1
    5682     4694     4672 1
    5683     4695     4672 1
    5684     4674     4673 1
    5685     4696     4673 1
    5686     4697     4673 1
    5687     4675     4674 1
    5688     4698     4674 1
    5689     4699     4674 1
    5690     4676     4675 1
    5691     4700     4675 1
    5692     4701     4675 1
    5693     4677     4676 1
    5694     4702     4676 1
    5695     4703     4676 1
    5696     4678     4677 1
    5697     4704     4677 1
    5698     4705     4677 1
    5699     4679     4678 1
    5700     4706     4678 1
    5701     4707     4678 1
    5702     4680     4679 1
    5703     4708     4679 1
    5704     4681     4680 1
    5705     4709     4680 1
    5706     4682     4681 1
    5707     4710     4681 1
    5708     4711     4681 1
    5709     4683     4682 1
    5710     4712     4682 1
    5711     4713     4682 1
    5712     4684     4683 1
    5713     4714     4683 1
    5714     4715     4683 1
    5715     4685     4684 1
    5716     4716     4684 1
    5717     4717     4684 1
    5718     4686     4685 1
    5719     4718     4685 1
    5720     4719     4685 1
    5721     4687     4686 1
    5722     4720     4686 1
    5723     4721     4686 1
    5724     4688     4687 1
    5725     4722     4687 1
    5726     4723     4687 1
    5727     4690     4688 1
    5728     4724     4690 1
@<TRIPOS>SUBSTRUCTURE
       1 RES             1 RESIDUE    0 **** ROOT      0
