@<TRIPOS>MOLECULE
obabel.small_oleic.pdb
 164 206 0 0 0
SMALL
GASTEIGER

@<TRIPOS>ATOM
      1 Zn          0.0000    0.0000    0.0000 Zn      1  RES1        0.0000
      2 Zn          0.0000    0.0000    5.4500 Zn      1  RES1        0.0000
      3 Zn          0.0000   10.9010    0.0000 Zn      1  RES1        0.0000
      4 Zn          0.0000   10.9010    5.4500 Zn      1  RES1        0.0000
      5 Zn         10.9010    0.0000    0.0000 Zn      1  RES1        0.0000
      6 Zn         10.9010    0.0000    5.4500 Zn      1  RES1        0.0000
      7 Zn         10.9010   10.9010    0.0000 Zn      1  RES1        0.0000
      8 Zn         10.9010   10.9010    5.4500 Zn      1  RES1        0.0000
      9 Zn          0.0000    5.4500    0.0000 Zn      1  RES1        0.0000
     10 Zn          0.0000    5.4500    5.4500 Zn      1  RES1        0.0000
     11 Zn         10.9010    5.4500    0.0000 Zn      1  RES1        0.0000
     12 Zn         10.9010    5.4500    5.4500 Zn      1  RES1        0.0000
     13 Zn          5.4500    0.0000    0.0000 Zn      1  RES1        0.0000
     14 Zn          5.4500    0.0000    5.4500 Zn      1  RES1        0.0000
     15 Zn          5.4500   10.9010    0.0000 Zn      1  RES1        0.0000
     16 Zn          5.4500   10.9010    5.4500 Zn      1  RES1        0.0000
     17 Zn          5.4500    5.4500    0.0000 Zn      1  RES1        0.0000
     18 Zn          5.4500    5.4500    5.4500 Zn      1  RES1        0.0000
     19 Zn          0.0000    2.7250    2.7250 Zn      1  RES1        0.0000
     20 Zn         10.9010    2.7250    2.7250 Zn      1  RES1        0.0000
     21 Zn          0.0000    8.1750    2.7250 Zn      1  RES1        0.0000
     22 Zn         10.9010    8.1750    2.7250 Zn      1  RES1        0.0000
     23 Zn          5.4500    2.7250    2.7250 Zn      1  RES1        0.0000
     24 Zn          5.4500    8.1750    2.7250 Zn      1  RES1        0.0000
     25 Zn          2.7250    0.0000    2.7250 Zn      1  RES1        0.0000
     26 Zn          2.7250   10.9010    2.7250 Zn      1  RES1        0.0000
     27 Zn          2.7250    5.4500    2.7250 Zn      1  RES1        0.0000
     28 Zn          8.1750    0.0000    2.7250 Zn      1  RES1        0.0000
     29 Zn          8.1750   10.9010    2.7250 Zn      1  RES1        0.0000
     30 Zn          8.1750    5.4500    2.7250 Zn      1  RES1        0.0000
     31 Zn          2.7250    2.7250    0.0000 Zn      1  RES1        0.0000
     32 Zn          2.7250    2.7250    5.4500 Zn      1  RES1        0.0000
     33 Zn          2.7250    8.1750    0.0000 Zn      1  RES1        0.0000
     34 Zn          2.7250    8.1750    5.4500 Zn      1  RES1        0.0000
     35 Zn          8.1750    2.7250    0.0000 Zn      1  RES1        0.0000
     36 Zn          8.1750    2.7250    5.4500 Zn      1  RES1        0.0000
     37 Zn          8.1750    8.1750    0.0000 Zn      1  RES1        0.0000
     38 Zn          8.1750    8.1750    5.4500 Zn      1  RES1        0.0000
     39  S          1.3630    1.3630    4.0880 S.3     1  RES1        0.0000
     40  S          1.3630    6.8130    4.0880 S.3     1  RES1        0.0000
     41  S          6.8130    1.3630    4.0880 S.3     1  RES1        0.0000
     42  S          6.8130    6.8130    4.0880 S.3     1  RES1        0.0000
     43  S          1.3630    4.0880    1.3630 S.3     1  RES1        0.0000
     44  S          1.3630    9.5380    1.3630 S.3     1  RES1        0.0000
     45  S          6.8130    4.0880    1.3630 S.3     1  RES1        0.0000
     46  S          6.8130    9.5380    1.3630 S.3     1  RES1        0.0000
     47  S          4.0880    1.3630    1.3630 S.3     1  RES1        0.0000
     48  S          4.0880    6.8130    1.3630 S.3     1  RES1        0.0000
     49  S          9.5380    1.3630    1.3630 S.3     1  RES1        0.0000
     50  S          9.5380    6.8130    1.3630 S.3     1  RES1        0.0000
     51  S          4.0880    4.0880    4.0880 S.3     1  RES1        0.0000
     52  S          4.0880    9.5380    4.0880 S.3     1  RES1        0.0000
     53  S          9.5380    4.0880    4.0880 S.3     1  RES1        0.0000
     54  S          9.5380    9.5380    4.0880 S.3     1  RES1        0.0000
     55  S         -1.3630   -1.3630   -1.3630 S.3     1  RES1        0.0000
     56  S         -1.3630    1.3630    1.3630 S.3     1  RES1        0.0000
     57  S          1.3630   -1.3630    1.3630 S.3     1  RES1        0.0000
     58  S          1.3630    1.3630   -1.3630 S.3     1  RES1        0.0000
     59  S         -1.3630   -1.3630    4.0880 S.3     1  RES1        0.0000
     60  S         -1.3630    1.3630    6.8130 S.3     1  RES1        0.0000
     61  S          1.3630   -1.3630    6.8130 S.3     1  RES1        0.0000
     62  S         -1.3630    9.5380   -1.3630 S.3     1  RES1        0.0000
     63  S         -1.3630   12.2630    1.3630 S.3     1  RES1        0.0000
     64  S          1.3630   12.2630   -1.3630 S.3     1  RES1        0.0000
     65  S         -1.3630    9.5380    4.0880 S.3     1  RES1        0.0000
     66  S         -1.3630   12.2630    6.8130 S.3     1  RES1        0.0000
     67  S          1.3630    9.5380    6.8130 S.3     1  RES1        0.0000
     68  S          1.3630   12.2630    4.0880 S.3     1  RES1        0.0000
     69  S          9.5380   -1.3630   -1.3630 S.3     1  RES1        0.0000
     70  S         12.2630   -1.3630    1.3630 S.3     1  RES1        0.0000
     71  S         12.2630    1.3630   -1.3630 S.3     1  RES1        0.0000
     72  S          9.5380   -1.3630    4.0880 S.3     1  RES1        0.0000
     73  S          9.5380    1.3630    6.8130 S.3     1  RES1        0.0000
     74  S         12.2630   -1.3630    6.8130 S.3     1  RES1        0.0000
     75  S         12.2630    1.3630    4.0880 S.3     1  RES1        0.0000
     76  S          9.5380    9.5380   -1.3630 S.3     1  RES1        0.0000
     77  S          9.5380   12.2630    1.3630 S.3     1  RES1        0.0000
     78  S         12.2630    9.5380    1.3630 S.3     1  RES1        0.0000
     79  S         12.2630   12.2630   -1.3630 S.3     1  RES1        0.0000
     80  S          9.5380   12.2630    6.8130 S.3     1  RES1        0.0000
     81  S         12.2630    9.5380    6.8130 S.3     1  RES1        0.0000
     82  S         12.2630   12.2630    4.0880 S.3     1  RES1        0.0000
     83  S         -1.3630    4.0880   -1.3630 S.3     1  RES1        0.0000
     84  S         -1.3630    6.8130    1.3630 S.3     1  RES1        0.0000
     85  S          1.3630    6.8130   -1.3630 S.3     1  RES1        0.0000
     86  S         -1.3630    4.0880    4.0880 S.3     1  RES1        0.0000
     87  S         -1.3630    6.8130    6.8130 S.3     1  RES1        0.0000
     88  S          1.3630    4.0880    6.8130 S.3     1  RES1        0.0000
     89  S          9.5380    4.0880   -1.3630 S.3     1  RES1        0.0000
     90  S         12.2630    4.0880    1.3630 S.3     1  RES1        0.0000
     91  S         12.2630    6.8130   -1.3630 S.3     1  RES1        0.0000
     92  S          9.5380    6.8130    6.8130 S.3     1  RES1        0.0000
     93  S         12.2630    4.0880    6.8130 S.3     1  RES1        0.0000
     94  S         12.2630    6.8130    4.0880 S.3     1  RES1        0.0000
     95  S          4.0880   -1.3630   -1.3630 S.3     1  RES1        0.0000
     96  S          6.8130   -1.3630    1.3630 S.3     1  RES1        0.0000
     97  S          6.8130    1.3630   -1.3630 S.3     1  RES1        0.0000
     98  S          4.0880   -1.3630    4.0880 S.3     1  RES1        0.0000
     99  S          4.0880    1.3630    6.8130 S.3     1  RES1        0.0000
    100  S          6.8130   -1.3630    6.8130 S.3     1  RES1        0.0000
    101  S          4.0880    9.5380   -1.3630 S.3     1  RES1        0.0000
    102  S          4.0880   12.2630    1.3630 S.3     1  RES1        0.0000
    103  S          6.8130   12.2630   -1.3630 S.3     1  RES1        0.0000
    104  S          4.0880   12.2630    6.8130 S.3     1  RES1        0.0000
    105  S          6.8130    9.5380    6.8130 S.3     1  RES1        0.0000
    106  S          6.8130   12.2630    4.0880 S.3     1  RES1        0.0000
    107  S          4.0880    4.0880   -1.3630 S.3     1  RES1        0.0000
    108  S          6.8130    6.8130   -1.3630 S.3     1  RES1        0.0000
    109  S          4.0880    6.8130    6.8130 S.3     1  RES1        0.0000
    110  S          6.8130    4.0880    6.8130 S.3     1  RES1        0.0000
    111  C         -0.8240   10.7810   21.9780 C.3     1  RES1        0.0000
    112  C         -0.8940   12.1250   21.2530 C.3     1  RES1        0.0000
    113  C          0.1240   12.2350   20.1080 C.3     1  RES1        0.0000
    114  C         -0.2090   11.3030   18.9300 C.3     1  RES1        0.0000
    115  C          0.6460   11.5940   17.6870 C.3     1  RES1        0.0000
    116  C          2.1310   11.2480   17.9000 C.3     1  RES1        0.0000
    117  C          2.9360   11.2820   16.5920 C.3     1  RES1        0.0000
    118  C          3.1400   12.7100   16.0620 C.3     1  RES1        0.0000
    119  C          4.0010   12.7080   14.8250 C.2     1  RES1        0.0000
    120  C          3.5640   12.4210   13.5840 C.2     1  RES1        0.0000
    121  C          2.1320   12.1050   13.2170 C.3     1  RES1        0.0000
    122  C          2.0560   10.8900   12.2840 C.3     1  RES1        0.0000
    123  C          2.3820    9.5770   13.0170 C.3     1  RES1        0.0000
    124  C          2.4630    8.3760   12.0520 C.3     1  RES1        0.0000
    125  C          3.9040    7.9470   11.7290 C.3     1  RES1        0.0000
    126  C          4.6810    9.0090   10.9380 C.3     1  RES1        0.0000
    127  C          6.0600    8.4860   10.5240 C.3     1  RES1        0.0000
    128  C          6.8130    9.5380    9.7740 C.3     1  RES1        0.0000
    129  O          6.8130    9.5380    8.5130 O.3     1  RES1        0.0000
    130  O          7.4800   10.5420   10.4700 O.3     1  RES1        0.0000
    131  H         -1.1590    9.9580   21.3130 H       1  RES1        0.0000
    132  H         -1.4920   10.8040   22.8640 H       1  RES1        0.0000
    133  H          0.2130   10.5780   22.3230 H       1  RES1        0.0000
    134  H         -0.6820   12.9300   21.9900 H       1  RES1        0.0000
    135  H         -1.9240   12.2860   20.8660 H       1  RES1        0.0000
    136  H          0.1230   13.2880   19.7490 H       1  RES1        0.0000
    137  H          1.1400   12.0110   20.4980 H       1  RES1        0.0000
    138  H         -0.0720   10.2420   19.2300 H       1  RES1        0.0000
    139  H         -1.2770   11.4390   18.6500 H       1  RES1        0.0000
    140  H          0.2480   10.9840   16.8460 H       1  RES1        0.0000
    141  H          0.5370   12.6640   17.4100 H       1  RES1        0.0000
    142  H          2.5880   11.9490   18.6320 H       1  RES1        0.0000
    143  H          2.2070   10.2210   18.3210 H       1  RES1        0.0000
    144  H          2.4350   10.6480   15.8310 H       1  RES1        0.0000
    145  H          3.9340   10.8320   16.7890 H       1  RES1        0.0000
    146  H          3.6590   13.3070   16.8430 H       1  RES1        0.0000
    147  H          2.1740   13.2150   15.8540 H       1  RES1        0.0000
    148  H          5.0450   12.9790   14.9450 H       1  RES1        0.0000
    149  H          4.2830   12.4900   12.7710 H       1  RES1        0.0000
    150  H          1.4880   11.9230   14.1010 H       1  RES1        0.0000
    151  H          1.7160   12.9860   12.6850 H       1  RES1        0.0000
    152  H          2.7380   11.0420   11.4200 H       1  RES1        0.0000
    153  H          1.0230   10.8220   11.8770 H       1  RES1        0.0000
    154  H          3.3290    9.6760   13.5910 H       1  RES1        0.0000
    155  H          1.5740    9.3860   13.7570 H       1  RES1        0.0000
    156  H          1.9080    8.5770   11.1090 H       1  RES1        0.0000
    157  H          1.9600    7.5090   12.5340 H       1  RES1        0.0000
    158  H          3.8570    7.0120   11.1290 H       1  RES1        0.0000
    159  H          4.4430    7.7130   12.6740 H       1  RES1        0.0000
    160  H          4.1050    9.2880   10.0280 H       1  RES1        0.0000
    161  H          4.8180    9.9130   11.5700 H       1  RES1        0.0000
    162  H          6.6420    8.2020   11.4280 H       1  RES1        0.0000
    163  H          5.9460    7.5820    9.8860 H       1  RES1        0.0000
    164  H          7.9740   11.2760    9.9770 H       1  RES1        0.0000
@<TRIPOS>BOND
     1     1    55    1
     2     1    58    1
     3     1    56    1
     4     1    57    1
     5     2    59    1
     6     2    39    1
     7     2    60    1
     8     2    61    1
     9     3    62    1
    10     3    64    1
    11     3    44    1
    12     3    63    1
    13     4    68    1
    14     4    65    1
    15     4    66    1
    16     4    67    1
    17     5    71    1
    18     5    69    1
    19     5    49    1
    20     5    70    1
    21     6    72    1
    22     6    75    1
    23     6    73    1
    24     6    74    1
    25     7    76    1
    26     7    79    1
    27     7    78    1
    28     7    77    1
    29     8    82    1
    30     8    54    1
    31     8    80    1
    32     8    81    1
    33     9    85    1
    34     9    83    1
    35     9    43    1
    36     9    84    1
    37    10    86    1
    38    10    40    1
    39    10    88    1
    40    10    87    1
    41    11    91    1
    42    11    89    1
    43    11    50    1
    44    11    90    1
    45    12    53    1
    46    12    94    1
    47    12    93    1
    48    12    92    1
    49    13    95    1
    50    13    97    1
    51    13    47    1
    52    13    96    1
    53    14    41    1
    54    14    98    1
    55    14   100    1
    56    14    99    1
    57    15   101    1
    58    15   103    1
    59    15    46    1
    60    15   102    1
    61    16    52    1
    62    16   106    1
    63    16   104    1
    64    16   105    1
    65    17   107    1
    66    17   108    1
    67    17    45    1
    68    17    48    1
    69    18    51    1
    70    18    42    1
    71    18   109    1
    72    18   110    1
    73    19    56    1
    74    19    43    1
    75    19    86    1
    76    19    39    1
    77    20    49    1
    78    20    90    1
    79    20    75    1
    80    20    53    1
    81    21    44    1
    82    21    84    1
    83    21    65    1
    84    21    40    1
    85    22    50    1
    86    22    78    1
    87    22    54    1
    88    22    94    1
    89    23    45    1
    90    23    47    1
    91    23    51    1
    92    23    41    1
    93    24    46    1
    94    24    48    1
    95    24    52    1
    96    24    42    1
    97    25    47    1
    98    25    57    1
    99    25    39    1
   100    25    98    1
   101    26    44    1
   102    26   102    1
   103    26    68    1
   104    26    52    1
   105    27    48    1
   106    27    43    1
   107    27    51    1
   108    27    40    1
   109    28    49    1
   110    28    96    1
   111    28    72    1
   112    28    41    1
   113    29    46    1
   114    29    77    1
   115    29    54    1
   116    29   106    1
   117    30    45    1
   118    30    50    1
   119    30    53    1
   120    30    42    1
   121    31    58    1
   122    31   107    1
   123    31    47    1
   124    31    43    1
   125    32    51    1
   126    32    39    1
   127    32    99    1
   128    32    88    1
   129    33    85    1
   130    33   101    1
   131    33    44    1
   132    33    48    1
   133    34    52    1
   134    34    40    1
   135    34   109    1
   136    34    67    1
   137    35    97    1
   138    35    89    1
   139    35    45    1
   140    35    49    1
   141    36    53    1
   142    36    41    1
   143    36   110    1
   144    36    73    1
   145    37    76    1
   146    37   108    1
   147    37    46    1
   148    37    50    1
   149    38    54    1
   150    38    42    1
   151    38   105    1
   152    38    92    1
   153   105   129    1
   154   111   112    1
   155   111   131    1
   156   111   133    1
   157   111   132    1
   158   112   113    1
   159   112   135    1
   160   112   134    1
   161   113   114    1
   162   113   136    1
   163   113   137    1
   164   114   115    1
   165   114   139    1
   166   114   138    1
   167   115   140    1
   168   115   141    1
   169   115   116    1
   170   116   117    1
   171   116   143    1
   172   116   142    1
   173   117   144    1
   174   117   118    1
   175   117   145    1
   176   118   119    1
   177   118   147    1
   178   118   146    1
   179   119   120    2
   180   119   148    1
   181   120   149    1
   182   120   121    1
   183   121   122    1
   184   121   151    1
   185   121   150    1
   186   122   152    1
   187   122   153    1
   188   122   123    1
   189   123   124    1
   190   123   154    1
   191   123   155    1
   192   124   156    1
   193   124   125    1
   194   124   157    1
   195   125   126    1
   196   125   158    1
   197   125   159    1
   198   126   160    1
   199   126   127    1
   200   126   161    1
   201   127   128    1
   202   127   163    1
   203   127   162    1
   204   128   129    1
   205   128   130    1
   206   130   164    1
