@<TRIPOS>MOLECULE
zn4 s4
 46 56 0 0 0
SMALL
GASTEIGER

@<TRIPOS>ATOM
      1 ZN          0.0000    0.0000    0.0000 Zn      1  UNL1        0.0000
      2 ZN          0.0000    0.0000    5.4503 Zn      1  UNL1        0.0000
      3 ZN          0.0000    5.4503    0.0000 Zn      1  UNL1        0.0000
      4 ZN          0.0000    5.4503    5.4503 Zn      1  UNL1        0.0000
      5 ZN          5.4503    0.0000    0.0000 Zn      1  UNL1        0.0000
      6 ZN          5.4503    0.0000    5.4503 Zn      1  UNL1        0.0000
      7 ZN          5.4503    5.4503    0.0000 Zn      1  UNL1        0.0000
      8 ZN          5.4503    5.4503    5.4503 Zn      1  UNL1        0.0000
      9 ZN          0.0000    2.7251    2.7251 Zn      1  UNL1        0.0000
     10 ZN          5.4503    2.7251    2.7251 Zn      1  UNL1        0.0000
     11 ZN          2.7251    0.0000    2.7251 Zn      1  UNL1        0.0000
     12 ZN          2.7251    5.4503    2.7251 Zn      1  UNL1        0.0000
     13 ZN          2.7251    2.7251    0.0000 Zn      1  UNL1        0.0000
     14 ZN          2.7251    2.7251    5.4503 Zn      1  UNL1        0.0000
     15 S           1.3626    1.3626    4.0877 S.3     1  UNL1        0.0000
     16 S           4.0877    4.0877    4.0877 S.3     1  UNL1        0.0000
     17 S           4.0877    1.3626    1.3626 S.3     1  UNL1        0.0000
     18 S           1.3626    4.0877    1.3626 S.3     1  UNL1        0.0000
     19 S          -1.3626   -1.3626   -1.3626 S.3     1  UNL1        0.0000
     20 S          -1.3626    1.3626    1.3626 S.3     1  UNL1        0.0000
     21 S           1.3626   -1.3626    1.3626 S.3     1  UNL1        0.0000
     22 S           1.3626    1.3626   -1.3626 S.3     1  UNL1        0.0000
     23 S          -1.3626   -1.3626    4.0877 S.3     1  UNL1        0.0000
     24 S          -1.3626    1.3626    6.8128 S.3     1  UNL1        0.0000
     25 S           1.3626   -1.3626    6.8128 S.3     1  UNL1        0.0000
     26 S          -1.3626    4.0877   -1.3626 S.3     1  UNL1        0.0000
     27 S          -1.3626    6.8128    1.3626 S.3     1  UNL1        0.0000
     28 S           1.3626    6.8128   -1.3626 S.3     1  UNL1        0.0000
     29 S          -1.3626    4.0877    4.0877 S.3     1  UNL1        0.0000
     30 S          -1.3626    6.8128    6.8128 S.3     1  UNL1        0.0000
     31 S           1.3626    4.0877    6.8128 S.3     1  UNL1        0.0000
     32 S           1.3626    6.8128    4.0877 S.3     1  UNL1        0.0000
     33 S           4.0877   -1.3626   -1.3626 S.3     1  UNL1        0.0000
     34 S           6.8128   -1.3626    1.3626 S.3     1  UNL1        0.0000
     35 S           6.8128    1.3626   -1.3626 S.3     1  UNL1        0.0000
     36 S           4.0877   -1.3626    4.0877 S.3     1  UNL1        0.0000
     37 S           4.0877    1.3626    6.8128 S.3     1  UNL1        0.0000
     38 S           6.8128   -1.3626    6.8128 S.3     1  UNL1        0.0000
     39 S           6.8128    1.3626    4.0877 S.3     1  UNL1        0.0000
     40 S           4.0877    4.0877   -1.3626 S.3     1  UNL1        0.0000
     41 S           4.0877    6.8128    1.3626 S.3     1  UNL1        0.0000
     42 S           6.8128    4.0877    1.3626 S.3     1  UNL1        0.0000
     43 S           6.8128    6.8128   -1.3626 S.3     1  UNL1        0.0000
     44 S           4.0877    6.8128    6.8128 S.3     1  UNL1        0.0000
     45 S           6.8128    4.0877    6.8128 S.3     1  UNL1        0.0000
     46 S           6.8128    6.8128    4.0877 S.3     1  UNL1        0.0000
@<TRIPOS>BOND
     1    28     3    1
     2    19     1    1
     3    22    13    1
     4    22     1    1
     5    40     7    1
     6    40    13    1
     7    26     3    1
     8    35     5    1
     9    43     7    1
    10    33     5    1
    11     7    42    1
    12     7    41    1
    13     5    34    1
    14     5    17    1
    15    13    17    1
    16    13    18    1
    17     3    27    1
    18     3    18    1
    19     1    21    1
    20     1    20    1
    21    21    11    1
    22    20     9    1
    23    17    11    1
    24    17    10    1
    25    42    10    1
    26    41    12    1
    27    18     9    1
    28    18    12    1
    29    11    15    1
    30    11    36    1
    31     9    15    1
    32     9    29    1
    33    10    39    1
    34    10    16    1
    35    12    16    1
    36    12    32    1
    37    39     6    1
    38    23     2    1
    39    15     2    1
    40    15    14    1
    41    29     4    1
    42    36     6    1
    43    16    14    1
    44    16     8    1
    45    32     4    1
    46    46     8    1
    47     2    25    1
    48     2    24    1
    49    14    31    1
    50    14    37    1
    51     8    44    1
    52     8    45    1
    53     6    37    1
    54     6    38    1
    55     4    31    1
    56     4    30    1
