@<TRIPOS>MOLECULE
zn4 s4
 850 1352 0 0 0
SMALL
GASTEIGER

@<TRIPOS>ATOM
      1 ZN          0.0000    0.0000    0.0000 Zn      1  UNL1        0.0000
      2 ZN          0.0000    0.0000    5.4503 Zn      1  UNL1        0.0000
      3 ZN          0.0000   38.1519    0.0000 Zn      1  UNL1        0.0000
      4 ZN          0.0000   38.1519    5.4503 Zn      1  UNL1        0.0000
      5 ZN         38.1519    0.0000    0.0000 Zn      1  UNL1        0.0000
      6 ZN         38.1519    0.0000    5.4503 Zn      1  UNL1        0.0000
      7 ZN         38.1519   38.1519    0.0000 Zn      1  UNL1        0.0000
      8 ZN         38.1519   38.1519    5.4503 Zn      1  UNL1        0.0000
      9 ZN          0.0000    2.7251    2.7251 Zn      1  UNL1        0.0000
     10 ZN         38.1519    2.7251    2.7251 Zn      1  UNL1        0.0000
     11 ZN          2.7251    0.0000    2.7251 Zn      1  UNL1        0.0000
     12 ZN          2.7251   38.1519    2.7251 Zn      1  UNL1        0.0000
     13 ZN          2.7251    2.7251    0.0000 Zn      1  UNL1        0.0000
     14 ZN          2.7251    2.7251    5.4503 Zn      1  UNL1        0.0000
     15 ZN          0.0000    5.4503    0.0000 Zn      1  UNL1        0.0000
     16 ZN          0.0000    5.4503    5.4503 Zn      1  UNL1        0.0000
     17 ZN         38.1519    5.4503    0.0000 Zn      1  UNL1        0.0000
     18 ZN         38.1519    5.4503    5.4503 Zn      1  UNL1        0.0000
     19 ZN          0.0000   32.7016    0.0000 Zn      1  UNL1        0.0000
     20 ZN          0.0000   32.7016    5.4503 Zn      1  UNL1        0.0000
     21 ZN         38.1519   32.7016    0.0000 Zn      1  UNL1        0.0000
     22 ZN         38.1519   32.7016    5.4503 Zn      1  UNL1        0.0000
     23 ZN          5.4503    0.0000    0.0000 Zn      1  UNL1        0.0000
     24 ZN          5.4503    0.0000    5.4503 Zn      1  UNL1        0.0000
     25 ZN          5.4503   38.1519    0.0000 Zn      1  UNL1        0.0000
     26 ZN          5.4503   38.1519    5.4503 Zn      1  UNL1        0.0000
     27 ZN         32.7016    0.0000    0.0000 Zn      1  UNL1        0.0000
     28 ZN         32.7016    0.0000    5.4503 Zn      1  UNL1        0.0000
     29 ZN         32.7016   38.1519    0.0000 Zn      1  UNL1        0.0000
     30 ZN         32.7016   38.1519    5.4503 Zn      1  UNL1        0.0000
     31 ZN          0.0000    8.1754    2.7251 Zn      1  UNL1        0.0000
     32 ZN         38.1519    8.1754    2.7251 Zn      1  UNL1        0.0000
     33 ZN          0.0000   35.4268    2.7251 Zn      1  UNL1        0.0000
     34 ZN         38.1519   35.4268    2.7251 Zn      1  UNL1        0.0000
     35 ZN          5.4503    2.7251    2.7251 Zn      1  UNL1        0.0000
     36 ZN         32.7016    2.7251    2.7251 Zn      1  UNL1        0.0000
     37 ZN          2.7251    5.4503    2.7251 Zn      1  UNL1        0.0000
     38 ZN          2.7251   32.7016    2.7251 Zn      1  UNL1        0.0000
     39 ZN          8.1754    0.0000    2.7251 Zn      1  UNL1        0.0000
     40 ZN          8.1754   38.1519    2.7251 Zn      1  UNL1        0.0000
     41 ZN         35.4268    0.0000    2.7251 Zn      1  UNL1        0.0000
     42 ZN         35.4268   38.1519    2.7251 Zn      1  UNL1        0.0000
     43 ZN          2.7251    8.1754    0.0000 Zn      1  UNL1        0.0000
     44 ZN          2.7251    8.1754    5.4503 Zn      1  UNL1        0.0000
     45 ZN          2.7251   35.4268    0.0000 Zn      1  UNL1        0.0000
     46 ZN          2.7251   35.4268    5.4503 Zn      1  UNL1        0.0000
     47 ZN          8.1754    2.7251    0.0000 Zn      1  UNL1        0.0000
     48 ZN          8.1754    2.7251    5.4503 Zn      1  UNL1        0.0000
     49 ZN         35.4268    2.7251    0.0000 Zn      1  UNL1        0.0000
     50 ZN         35.4268    2.7251    5.4503 Zn      1  UNL1        0.0000
     51 ZN          0.0000   10.9005    0.0000 Zn      1  UNL1        0.0000
     52 ZN          0.0000   10.9005    5.4503 Zn      1  UNL1        0.0000
     53 ZN         38.1519   10.9005    0.0000 Zn      1  UNL1        0.0000
     54 ZN         38.1519   10.9005    5.4503 Zn      1  UNL1        0.0000
     55 ZN          0.0000   27.2514    0.0000 Zn      1  UNL1        0.0000
     56 ZN          0.0000   27.2514    5.4503 Zn      1  UNL1        0.0000
     57 ZN         38.1519   27.2514    0.0000 Zn      1  UNL1        0.0000
     58 ZN         38.1519   27.2514    5.4503 Zn      1  UNL1        0.0000
     59 ZN         10.9005    0.0000    0.0000 Zn      1  UNL1        0.0000
     60 ZN         10.9005    0.0000    5.4503 Zn      1  UNL1        0.0000
     61 ZN         10.9005   38.1519    0.0000 Zn      1  UNL1        0.0000
     62 ZN         10.9005   38.1519    5.4503 Zn      1  UNL1        0.0000
     63 ZN         27.2514    0.0000    0.0000 Zn      1  UNL1        0.0000
     64 ZN         27.2514    0.0000    5.4503 Zn      1  UNL1        0.0000
     65 ZN         27.2514   38.1519    0.0000 Zn      1  UNL1        0.0000
     66 ZN         27.2514   38.1519    5.4503 Zn      1  UNL1        0.0000
     67 ZN          0.0000   13.6257    2.7251 Zn      1  UNL1        0.0000
     68 ZN         38.1519   13.6257    2.7251 Zn      1  UNL1        0.0000
     69 ZN          0.0000   29.9765    2.7251 Zn      1  UNL1        0.0000
     70 ZN         38.1519   29.9765    2.7251 Zn      1  UNL1        0.0000
     71 ZN         10.9005    2.7251    2.7251 Zn      1  UNL1        0.0000
     72 ZN         27.2514    2.7251    2.7251 Zn      1  UNL1        0.0000
     73 ZN          2.7251   10.9005    2.7251 Zn      1  UNL1        0.0000
     74 ZN          2.7251   27.2514    2.7251 Zn      1  UNL1        0.0000
     75 ZN         13.6257    0.0000    2.7251 Zn      1  UNL1        0.0000
     76 ZN         13.6257   38.1519    2.7251 Zn      1  UNL1        0.0000
     77 ZN         29.9765    0.0000    2.7251 Zn      1  UNL1        0.0000
     78 ZN         29.9765   38.1519    2.7251 Zn      1  UNL1        0.0000
     79 ZN          2.7251   13.6257    0.0000 Zn      1  UNL1        0.0000
     80 ZN          2.7251   13.6257    5.4503 Zn      1  UNL1        0.0000
     81 ZN          2.7251   29.9765    0.0000 Zn      1  UNL1        0.0000
     82 ZN          2.7251   29.9765    5.4503 Zn      1  UNL1        0.0000
     83 ZN         13.6257    2.7251    0.0000 Zn      1  UNL1        0.0000
     84 ZN         13.6257    2.7251    5.4503 Zn      1  UNL1        0.0000
     85 ZN         29.9765    2.7251    0.0000 Zn      1  UNL1        0.0000
     86 ZN         29.9765    2.7251    5.4503 Zn      1  UNL1        0.0000
     87 ZN          0.0000   16.3508    0.0000 Zn      1  UNL1        0.0000
     88 ZN          0.0000   16.3508    5.4503 Zn      1  UNL1        0.0000
     89 ZN         38.1519   16.3508    0.0000 Zn      1  UNL1        0.0000
     90 ZN         38.1519   16.3508    5.4503 Zn      1  UNL1        0.0000
     91 ZN          0.0000   21.8011    0.0000 Zn      1  UNL1        0.0000
     92 ZN          0.0000   21.8011    5.4503 Zn      1  UNL1        0.0000
     93 ZN         38.1519   21.8011    0.0000 Zn      1  UNL1        0.0000
     94 ZN         38.1519   21.8011    5.4503 Zn      1  UNL1        0.0000
     95 ZN         16.3508    0.0000    0.0000 Zn      1  UNL1        0.0000
     96 ZN         16.3508    0.0000    5.4503 Zn      1  UNL1        0.0000
     97 ZN         16.3508   38.1519    0.0000 Zn      1  UNL1        0.0000
     98 ZN         16.3508   38.1519    5.4503 Zn      1  UNL1        0.0000
     99 ZN         21.8011    0.0000    0.0000 Zn      1  UNL1        0.0000
    100 ZN         21.8011    0.0000    5.4503 Zn      1  UNL1        0.0000
    101 ZN         21.8011   38.1519    0.0000 Zn      1  UNL1        0.0000
    102 ZN         21.8011   38.1519    5.4503 Zn      1  UNL1        0.0000
    103 ZN          0.0000   19.0759    2.7251 Zn      1  UNL1        0.0000
    104 ZN         38.1519   19.0759    2.7251 Zn      1  UNL1        0.0000
    105 ZN          0.0000   24.5262    2.7251 Zn      1  UNL1        0.0000
    106 ZN         38.1519   24.5262    2.7251 Zn      1  UNL1        0.0000
    107 ZN         16.3508    2.7251    2.7251 Zn      1  UNL1        0.0000
    108 ZN         21.8011    2.7251    2.7251 Zn      1  UNL1        0.0000
    109 ZN          2.7251   16.3508    2.7251 Zn      1  UNL1        0.0000
    110 ZN          2.7251   21.8011    2.7251 Zn      1  UNL1        0.0000
    111 ZN         19.0759    0.0000    2.7251 Zn      1  UNL1        0.0000
    112 ZN         19.0759   38.1519    2.7251 Zn      1  UNL1        0.0000
    113 ZN         24.5262    0.0000    2.7251 Zn      1  UNL1        0.0000
    114 ZN         24.5262   38.1519    2.7251 Zn      1  UNL1        0.0000
    115 ZN          2.7251   19.0759    0.0000 Zn      1  UNL1        0.0000
    116 ZN          2.7251   19.0759    5.4503 Zn      1  UNL1        0.0000
    117 ZN          2.7251   24.5262    0.0000 Zn      1  UNL1        0.0000
    118 ZN          2.7251   24.5262    5.4503 Zn      1  UNL1        0.0000
    119 ZN         19.0759    2.7251    0.0000 Zn      1  UNL1        0.0000
    120 ZN         19.0759    2.7251    5.4503 Zn      1  UNL1        0.0000
    121 ZN         24.5262    2.7251    0.0000 Zn      1  UNL1        0.0000
    122 ZN         24.5262    2.7251    5.4503 Zn      1  UNL1        0.0000
    123 ZN          5.4503    5.4503    0.0000 Zn      1  UNL1        0.0000
    124 ZN          5.4503    5.4503    5.4503 Zn      1  UNL1        0.0000
    125 ZN         32.7016   32.7016    0.0000 Zn      1  UNL1        0.0000
    126 ZN         32.7016   32.7016    5.4503 Zn      1  UNL1        0.0000
    127 ZN         32.7016    5.4503    0.0000 Zn      1  UNL1        0.0000
    128 ZN         32.7016    5.4503    5.4503 Zn      1  UNL1        0.0000
    129 ZN          5.4503   32.7016    0.0000 Zn      1  UNL1        0.0000
    130 ZN          5.4503   32.7016    5.4503 Zn      1  UNL1        0.0000
    131 ZN          5.4503    8.1754    2.7251 Zn      1  UNL1        0.0000
    132 ZN         32.7016   35.4268    2.7251 Zn      1  UNL1        0.0000
    133 ZN         32.7016    8.1754    2.7251 Zn      1  UNL1        0.0000
    134 ZN          5.4503   35.4268    2.7251 Zn      1  UNL1        0.0000
    135 ZN          8.1754    5.4503    2.7251 Zn      1  UNL1        0.0000
    136 ZN         35.4268   32.7016    2.7251 Zn      1  UNL1        0.0000
    137 ZN         35.4268    5.4503    2.7251 Zn      1  UNL1        0.0000
    138 ZN          8.1754   32.7016    2.7251 Zn      1  UNL1        0.0000
    139 ZN          8.1754    8.1754    0.0000 Zn      1  UNL1        0.0000
    140 ZN          8.1754    8.1754    5.4503 Zn      1  UNL1        0.0000
    141 ZN         35.4268   35.4268    0.0000 Zn      1  UNL1        0.0000
    142 ZN         35.4268   35.4268    5.4503 Zn      1  UNL1        0.0000
    143 ZN         35.4268    8.1754    0.0000 Zn      1  UNL1        0.0000
    144 ZN         35.4268    8.1754    5.4503 Zn      1  UNL1        0.0000
    145 ZN          8.1754   35.4268    0.0000 Zn      1  UNL1        0.0000
    146 ZN          8.1754   35.4268    5.4503 Zn      1  UNL1        0.0000
    147 ZN          5.4503   10.9005    0.0000 Zn      1  UNL1        0.0000
    148 ZN          5.4503   10.9005    5.4503 Zn      1  UNL1        0.0000
    149 ZN         32.7016   27.2514    0.0000 Zn      1  UNL1        0.0000
    150 ZN         32.7016   27.2514    5.4503 Zn      1  UNL1        0.0000
    151 ZN         32.7016   10.9005    0.0000 Zn      1  UNL1        0.0000
    152 ZN         32.7016   10.9005    5.4503 Zn      1  UNL1        0.0000
    153 ZN          5.4503   27.2514    0.0000 Zn      1  UNL1        0.0000
    154 ZN          5.4503   27.2514    5.4503 Zn      1  UNL1        0.0000
    155 ZN         10.9005    5.4503    0.0000 Zn      1  UNL1        0.0000
    156 ZN         10.9005    5.4503    5.4503 Zn      1  UNL1        0.0000
    157 ZN         27.2514   32.7016    0.0000 Zn      1  UNL1        0.0000
    158 ZN         27.2514   32.7016    5.4503 Zn      1  UNL1        0.0000
    159 ZN         10.9005   32.7016    0.0000 Zn      1  UNL1        0.0000
    160 ZN         10.9005   32.7016    5.4503 Zn      1  UNL1        0.0000
    161 ZN         27.2514    5.4503    0.0000 Zn      1  UNL1        0.0000
    162 ZN         27.2514    5.4503    5.4503 Zn      1  UNL1        0.0000
    163 ZN          5.4503   13.6257    2.7251 Zn      1  UNL1        0.0000
    164 ZN         32.7016   29.9765    2.7251 Zn      1  UNL1        0.0000
    165 ZN         32.7016   13.6257    2.7251 Zn      1  UNL1        0.0000
    166 ZN          5.4503   29.9765    2.7251 Zn      1  UNL1        0.0000
    167 ZN         10.9005    8.1754    2.7251 Zn      1  UNL1        0.0000
    168 ZN         27.2514   35.4268    2.7251 Zn      1  UNL1        0.0000
    169 ZN         10.9005   35.4268    2.7251 Zn      1  UNL1        0.0000
    170 ZN         27.2514    8.1754    2.7251 Zn      1  UNL1        0.0000
    171 ZN          8.1754   10.9005    2.7251 Zn      1  UNL1        0.0000
    172 ZN         35.4268   27.2514    2.7251 Zn      1  UNL1        0.0000
    173 ZN         35.4268   10.9005    2.7251 Zn      1  UNL1        0.0000
    174 ZN          8.1754   27.2514    2.7251 Zn      1  UNL1        0.0000
    175 ZN         13.6257    5.4503    2.7251 Zn      1  UNL1        0.0000
    176 ZN         29.9765   32.7016    2.7251 Zn      1  UNL1        0.0000
    177 ZN         13.6257   32.7016    2.7251 Zn      1  UNL1        0.0000
    178 ZN         29.9765    5.4503    2.7251 Zn      1  UNL1        0.0000
    179 ZN          8.1754   13.6257    0.0000 Zn      1  UNL1        0.0000
    180 ZN          8.1754   13.6257    5.4503 Zn      1  UNL1        0.0000
    181 ZN         35.4268   29.9765    0.0000 Zn      1  UNL1        0.0000
    182 ZN         35.4268   29.9765    5.4503 Zn      1  UNL1        0.0000
    183 ZN         35.4268   13.6257    0.0000 Zn      1  UNL1        0.0000
    184 ZN         35.4268   13.6257    5.4503 Zn      1  UNL1        0.0000
    185 ZN          8.1754   29.9765    0.0000 Zn      1  UNL1        0.0000
    186 ZN          8.1754   29.9765    5.4503 Zn      1  UNL1        0.0000
    187 ZN         13.6257    8.1754    0.0000 Zn      1  UNL1        0.0000
    188 ZN         13.6257    8.1754    5.4503 Zn      1  UNL1        0.0000
    189 ZN         29.9765   35.4268    0.0000 Zn      1  UNL1        0.0000
    190 ZN         29.9765   35.4268    5.4503 Zn      1  UNL1        0.0000
    191 ZN         13.6257   35.4268    0.0000 Zn      1  UNL1        0.0000
    192 ZN         13.6257   35.4268    5.4503 Zn      1  UNL1        0.0000
    193 ZN         29.9765    8.1754    0.0000 Zn      1  UNL1        0.0000
    194 ZN         29.9765    8.1754    5.4503 Zn      1  UNL1        0.0000
    195 ZN          5.4503   16.3508    0.0000 Zn      1  UNL1        0.0000
    196 ZN          5.4503   16.3508    5.4503 Zn      1  UNL1        0.0000
    197 ZN         32.7016   21.8011    0.0000 Zn      1  UNL1        0.0000
    198 ZN         32.7016   21.8011    5.4503 Zn      1  UNL1        0.0000
    199 ZN         32.7016   16.3508    0.0000 Zn      1  UNL1        0.0000
    200 ZN         32.7016   16.3508    5.4503 Zn      1  UNL1        0.0000
    201 ZN          5.4503   21.8011    0.0000 Zn      1  UNL1        0.0000
    202 ZN          5.4503   21.8011    5.4503 Zn      1  UNL1        0.0000
    203 ZN         16.3508    5.4503    0.0000 Zn      1  UNL1        0.0000
    204 ZN         16.3508    5.4503    5.4503 Zn      1  UNL1        0.0000
    205 ZN         21.8011   32.7016    0.0000 Zn      1  UNL1        0.0000
    206 ZN         21.8011   32.7016    5.4503 Zn      1  UNL1        0.0000
    207 ZN         16.3508   32.7016    0.0000 Zn      1  UNL1        0.0000
    208 ZN         16.3508   32.7016    5.4503 Zn      1  UNL1        0.0000
    209 ZN         21.8011    5.4503    0.0000 Zn      1  UNL1        0.0000
    210 ZN         21.8011    5.4503    5.4503 Zn      1  UNL1        0.0000
    211 ZN          5.4503   19.0759    2.7251 Zn      1  UNL1        0.0000
    212 ZN         32.7016   24.5262    2.7251 Zn      1  UNL1        0.0000
    213 ZN         32.7016   19.0759    2.7251 Zn      1  UNL1        0.0000
    214 ZN          5.4503   24.5262    2.7251 Zn      1  UNL1        0.0000
    215 ZN         16.3508    8.1754    2.7251 Zn      1  UNL1        0.0000
    216 ZN         21.8011   35.4268    2.7251 Zn      1  UNL1        0.0000
    217 ZN         16.3508   35.4268    2.7251 Zn      1  UNL1        0.0000
    218 ZN         21.8011    8.1754    2.7251 Zn      1  UNL1        0.0000
    219 ZN          8.1754   16.3508    2.7251 Zn      1  UNL1        0.0000
    220 ZN         35.4268   21.8011    2.7251 Zn      1  UNL1        0.0000
    221 ZN         35.4268   16.3508    2.7251 Zn      1  UNL1        0.0000
    222 ZN          8.1754   21.8011    2.7251 Zn      1  UNL1        0.0000
    223 ZN         19.0759    5.4503    2.7251 Zn      1  UNL1        0.0000
    224 ZN         24.5262   32.7016    2.7251 Zn      1  UNL1        0.0000
    225 ZN         19.0759   32.7016    2.7251 Zn      1  UNL1        0.0000
    226 ZN         24.5262    5.4503    2.7251 Zn      1  UNL1        0.0000
    227 ZN          8.1754   19.0759    0.0000 Zn      1  UNL1        0.0000
    228 ZN          8.1754   19.0759    5.4503 Zn      1  UNL1        0.0000
    229 ZN         35.4268   24.5262    0.0000 Zn      1  UNL1        0.0000
    230 ZN         35.4268   24.5262    5.4503 Zn      1  UNL1        0.0000
    231 ZN         35.4268   19.0759    0.0000 Zn      1  UNL1        0.0000
    232 ZN         35.4268   19.0759    5.4503 Zn      1  UNL1        0.0000
    233 ZN          8.1754   24.5262    0.0000 Zn      1  UNL1        0.0000
    234 ZN          8.1754   24.5262    5.4503 Zn      1  UNL1        0.0000
    235 ZN         19.0759    8.1754    0.0000 Zn      1  UNL1        0.0000
    236 ZN         19.0759    8.1754    5.4503 Zn      1  UNL1        0.0000
    237 ZN         24.5262   35.4268    0.0000 Zn      1  UNL1        0.0000
    238 ZN         24.5262   35.4268    5.4503 Zn      1  UNL1        0.0000
    239 ZN         19.0759   35.4268    0.0000 Zn      1  UNL1        0.0000
    240 ZN         19.0759   35.4268    5.4503 Zn      1  UNL1        0.0000
    241 ZN         24.5262    8.1754    0.0000 Zn      1  UNL1        0.0000
    242 ZN         24.5262    8.1754    5.4503 Zn      1  UNL1        0.0000
    243 ZN         10.9005   10.9005    0.0000 Zn      1  UNL1        0.0000
    244 ZN         10.9005   10.9005    5.4503 Zn      1  UNL1        0.0000
    245 ZN         27.2514   27.2514    0.0000 Zn      1  UNL1        0.0000
    246 ZN         27.2514   27.2514    5.4503 Zn      1  UNL1        0.0000
    247 ZN         27.2514   10.9005    0.0000 Zn      1  UNL1        0.0000
    248 ZN         27.2514   10.9005    5.4503 Zn      1  UNL1        0.0000
    249 ZN         10.9005   27.2514    0.0000 Zn      1  UNL1        0.0000
    250 ZN         10.9005   27.2514    5.4503 Zn      1  UNL1        0.0000
    251 ZN         10.9005   13.6257    2.7251 Zn      1  UNL1        0.0000
    252 ZN         27.2514   29.9765    2.7251 Zn      1  UNL1        0.0000
    253 ZN         27.2514   13.6257    2.7251 Zn      1  UNL1        0.0000
    254 ZN         10.9005   29.9765    2.7251 Zn      1  UNL1        0.0000
    255 ZN         13.6257   10.9005    2.7251 Zn      1  UNL1        0.0000
    256 ZN         29.9765   27.2514    2.7251 Zn      1  UNL1        0.0000
    257 ZN         29.9765   10.9005    2.7251 Zn      1  UNL1        0.0000
    258 ZN         13.6257   27.2514    2.7251 Zn      1  UNL1        0.0000
    259 ZN         13.6257   13.6257    0.0000 Zn      1  UNL1        0.0000
    260 ZN         13.6257   13.6257    5.4503 Zn      1  UNL1        0.0000
    261 ZN         29.9765   29.9765    0.0000 Zn      1  UNL1        0.0000
    262 ZN         29.9765   29.9765    5.4503 Zn      1  UNL1        0.0000
    263 ZN         29.9765   13.6257    0.0000 Zn      1  UNL1        0.0000
    264 ZN         29.9765   13.6257    5.4503 Zn      1  UNL1        0.0000
    265 ZN         13.6257   29.9765    0.0000 Zn      1  UNL1        0.0000
    266 ZN         13.6257   29.9765    5.4503 Zn      1  UNL1        0.0000
    267 ZN         10.9005   16.3508    0.0000 Zn      1  UNL1        0.0000
    268 ZN         10.9005   16.3508    5.4503 Zn      1  UNL1        0.0000
    269 ZN         27.2514   21.8011    0.0000 Zn      1  UNL1        0.0000
    270 ZN         27.2514   21.8011    5.4503 Zn      1  UNL1        0.0000
    271 ZN         27.2514   16.3508    0.0000 Zn      1  UNL1        0.0000
    272 ZN         27.2514   16.3508    5.4503 Zn      1  UNL1        0.0000
    273 ZN         10.9005   21.8011    0.0000 Zn      1  UNL1        0.0000
    274 ZN         10.9005   21.8011    5.4503 Zn      1  UNL1        0.0000
    275 ZN         16.3508   10.9005    0.0000 Zn      1  UNL1        0.0000
    276 ZN         16.3508   10.9005    5.4503 Zn      1  UNL1        0.0000
    277 ZN         21.8011   27.2514    0.0000 Zn      1  UNL1        0.0000
    278 ZN         21.8011   27.2514    5.4503 Zn      1  UNL1        0.0000
    279 ZN         16.3508   27.2514    0.0000 Zn      1  UNL1        0.0000
    280 ZN         16.3508   27.2514    5.4503 Zn      1  UNL1        0.0000
    281 ZN         21.8011   10.9005    0.0000 Zn      1  UNL1        0.0000
    282 ZN         21.8011   10.9005    5.4503 Zn      1  UNL1        0.0000
    283 ZN         10.9005   19.0759    2.7251 Zn      1  UNL1        0.0000
    284 ZN         27.2514   24.5262    2.7251 Zn      1  UNL1        0.0000
    285 ZN         27.2514   19.0759    2.7251 Zn      1  UNL1        0.0000
    286 ZN         10.9005   24.5262    2.7251 Zn      1  UNL1        0.0000
    287 ZN         16.3508   13.6257    2.7251 Zn      1  UNL1        0.0000
    288 ZN         21.8011   29.9765    2.7251 Zn      1  UNL1        0.0000
    289 ZN         16.3508   29.9765    2.7251 Zn      1  UNL1        0.0000
    290 ZN         21.8011   13.6257    2.7251 Zn      1  UNL1        0.0000
    291 ZN         13.6257   16.3508    2.7251 Zn      1  UNL1        0.0000
    292 ZN         29.9765   21.8011    2.7251 Zn      1  UNL1        0.0000
    293 ZN         29.9765   16.3508    2.7251 Zn      1  UNL1        0.0000
    294 ZN         13.6257   21.8011    2.7251 Zn      1  UNL1        0.0000
    295 ZN         19.0759   10.9005    2.7251 Zn      1  UNL1        0.0000
    296 ZN         24.5262   27.2514    2.7251 Zn      1  UNL1        0.0000
    297 ZN         19.0759   27.2514    2.7251 Zn      1  UNL1        0.0000
    298 ZN         24.5262   10.9005    2.7251 Zn      1  UNL1        0.0000
    299 ZN         13.6257   19.0759    0.0000 Zn      1  UNL1        0.0000
    300 ZN         13.6257   19.0759    5.4503 Zn      1  UNL1        0.0000
    301 ZN         29.9765   24.5262    0.0000 Zn      1  UNL1        0.0000
    302 ZN         29.9765   24.5262    5.4503 Zn      1  UNL1        0.0000
    303 ZN         29.9765   19.0759    0.0000 Zn      1  UNL1        0.0000
    304 ZN         29.9765   19.0759    5.4503 Zn      1  UNL1        0.0000
    305 ZN         13.6257   24.5262    0.0000 Zn      1  UNL1        0.0000
    306 ZN         13.6257   24.5262    5.4503 Zn      1  UNL1        0.0000
    307 ZN         19.0759   13.6257    0.0000 Zn      1  UNL1        0.0000
    308 ZN         19.0759   13.6257    5.4503 Zn      1  UNL1        0.0000
    309 ZN         24.5262   29.9765    0.0000 Zn      1  UNL1        0.0000
    310 ZN         24.5262   29.9765    5.4503 Zn      1  UNL1        0.0000
    311 ZN         19.0759   29.9765    0.0000 Zn      1  UNL1        0.0000
    312 ZN         19.0759   29.9765    5.4503 Zn      1  UNL1        0.0000
    313 ZN         24.5262   13.6257    0.0000 Zn      1  UNL1        0.0000
    314 ZN         24.5262   13.6257    5.4503 Zn      1  UNL1        0.0000
    315 ZN         16.3508   16.3508    0.0000 Zn      1  UNL1        0.0000
    316 ZN         16.3508   16.3508    5.4503 Zn      1  UNL1        0.0000
    317 ZN         21.8011   21.8011    0.0000 Zn      1  UNL1        0.0000
    318 ZN         21.8011   21.8011    5.4503 Zn      1  UNL1        0.0000
    319 ZN         21.8011   16.3508    0.0000 Zn      1  UNL1        0.0000
    320 ZN         21.8011   16.3508    5.4503 Zn      1  UNL1        0.0000
    321 ZN         16.3508   21.8011    0.0000 Zn      1  UNL1        0.0000
    322 ZN         16.3508   21.8011    5.4503 Zn      1  UNL1        0.0000
    323 ZN         16.3508   19.0759    2.7251 Zn      1  UNL1        0.0000
    324 ZN         21.8011   24.5262    2.7251 Zn      1  UNL1        0.0000
    325 ZN         21.8011   19.0759    2.7251 Zn      1  UNL1        0.0000
    326 ZN         16.3508   24.5262    2.7251 Zn      1  UNL1        0.0000
    327 ZN         19.0759   16.3508    2.7251 Zn      1  UNL1        0.0000
    328 ZN         24.5262   21.8011    2.7251 Zn      1  UNL1        0.0000
    329 ZN         24.5262   16.3508    2.7251 Zn      1  UNL1        0.0000
    330 ZN         19.0759   21.8011    2.7251 Zn      1  UNL1        0.0000
    331 ZN         19.0759   19.0759    0.0000 Zn      1  UNL1        0.0000
    332 ZN         19.0759   19.0759    5.4503 Zn      1  UNL1        0.0000
    333 ZN         24.5262   24.5262    0.0000 Zn      1  UNL1        0.0000
    334 ZN         24.5262   24.5262    5.4503 Zn      1  UNL1        0.0000
    335 ZN         24.5262   19.0759    0.0000 Zn      1  UNL1        0.0000
    336 ZN         24.5262   19.0759    5.4503 Zn      1  UNL1        0.0000
    337 ZN         19.0759   24.5262    0.0000 Zn      1  UNL1        0.0000
    338 ZN         19.0759   24.5262    5.4503 Zn      1  UNL1        0.0000
    339 S           1.3626    1.3626    4.0877 S.3     1  UNL1        0.0000
    340 S          36.7893   36.7893    4.0877 S.3     1  UNL1        0.0000
    341 S          36.7893    1.3626    1.3626 S.3     1  UNL1        0.0000
    342 S           1.3626   36.7893    1.3626 S.3     1  UNL1        0.0000
    343 S           4.0877    1.3626    1.3626 S.3     1  UNL1        0.0000
    344 S           4.0877   36.7893    4.0877 S.3     1  UNL1        0.0000
    345 S          34.0642   36.7893    1.3626 S.3     1  UNL1        0.0000
    346 S          34.0642    1.3626    4.0877 S.3     1  UNL1        0.0000
    347 S           1.3626    4.0877    1.3626 S.3     1  UNL1        0.0000
    348 S          36.7893    4.0877    4.0877 S.3     1  UNL1        0.0000
    349 S           1.3626   34.0642    4.0877 S.3     1  UNL1        0.0000
    350 S          36.7893   34.0642    1.3626 S.3     1  UNL1        0.0000
    351 S           4.0877    4.0877    4.0877 S.3     1  UNL1        0.0000
    352 S          34.0642    4.0877    1.3626 S.3     1  UNL1        0.0000
    353 S           1.3626    6.8128    4.0877 S.3     1  UNL1        0.0000
    354 S          36.7893    6.8128    1.3626 S.3     1  UNL1        0.0000
    355 S           6.8128    1.3626    4.0877 S.3     1  UNL1        0.0000
    356 S           6.8128   36.7893    1.3626 S.3     1  UNL1        0.0000
    357 S           4.0877   34.0642    1.3626 S.3     1  UNL1        0.0000
    358 S           6.8128    4.0877    1.3626 S.3     1  UNL1        0.0000
    359 S           4.0877    6.8128    1.3626 S.3     1  UNL1        0.0000
    360 S          36.7893   31.3391    4.0877 S.3     1  UNL1        0.0000
    361 S           1.3626   31.3391    1.3626 S.3     1  UNL1        0.0000
    362 S          31.3391    4.0877    4.0877 S.3     1  UNL1        0.0000
    363 S           6.8128   34.0642    4.0877 S.3     1  UNL1        0.0000
    364 S          31.3391   34.0642    1.3626 S.3     1  UNL1        0.0000
    365 S          31.3391   36.7893    4.0877 S.3     1  UNL1        0.0000
    366 S          31.3391    1.3626    1.3626 S.3     1  UNL1        0.0000
    367 S           4.0877   31.3391    4.0877 S.3     1  UNL1        0.0000
    368 S          34.0642    6.8128    4.0877 S.3     1  UNL1        0.0000
    369 S          34.0642   31.3391    1.3626 S.3     1  UNL1        0.0000
    370 S           1.3626    9.5380    1.3626 S.3     1  UNL1        0.0000
    371 S          36.7893    9.5380    4.0877 S.3     1  UNL1        0.0000
    372 S           6.8128    6.8128    4.0877 S.3     1  UNL1        0.0000
    373 S          31.3391    6.8128    1.3626 S.3     1  UNL1        0.0000
    374 S           4.0877    9.5380    4.0877 S.3     1  UNL1        0.0000
    375 S          34.0642    9.5380    1.3626 S.3     1  UNL1        0.0000
    376 S          34.0642   34.0642    4.0877 S.3     1  UNL1        0.0000
    377 S           9.5380    4.0877    4.0877 S.3     1  UNL1        0.0000
    378 S           9.5380   34.0642    1.3626 S.3     1  UNL1        0.0000
    379 S           9.5380    1.3626    1.3626 S.3     1  UNL1        0.0000
    380 S           9.5380   36.7893    4.0877 S.3     1  UNL1        0.0000
    381 S           6.8128   31.3391    1.3626 S.3     1  UNL1        0.0000
    382 S           9.5380    6.8128    1.3626 S.3     1  UNL1        0.0000
    383 S           6.8128    9.5380    1.3626 S.3     1  UNL1        0.0000
    384 S           1.3626   12.2631    4.0877 S.3     1  UNL1        0.0000
    385 S          36.7893   25.8888    4.0877 S.3     1  UNL1        0.0000
    386 S          36.7893   12.2631    1.3626 S.3     1  UNL1        0.0000
    387 S           1.3626   25.8888    1.3626 S.3     1  UNL1        0.0000
    388 S          12.2631    4.0877    1.3626 S.3     1  UNL1        0.0000
    389 S          25.8888    4.0877    4.0877 S.3     1  UNL1        0.0000
    390 S          12.2631   34.0642    4.0877 S.3     1  UNL1        0.0000
    391 S          25.8888   34.0642    1.3626 S.3     1  UNL1        0.0000
    392 S          12.2631    1.3626    4.0877 S.3     1  UNL1        0.0000
    393 S          25.8888   36.7893    4.0877 S.3     1  UNL1        0.0000
    394 S          12.2631   36.7893    1.3626 S.3     1  UNL1        0.0000
    395 S          25.8888    1.3626    1.3626 S.3     1  UNL1        0.0000
    396 S           4.0877   12.2631    1.3626 S.3     1  UNL1        0.0000
    397 S           4.0877   25.8888    4.0877 S.3     1  UNL1        0.0000
    398 S          34.0642   12.2631    4.0877 S.3     1  UNL1        0.0000
    399 S          34.0642   25.8888    1.3626 S.3     1  UNL1        0.0000
    400 S           1.3626   14.9882    1.3626 S.3     1  UNL1        0.0000
    401 S          36.7893   28.6139    1.3626 S.3     1  UNL1        0.0000
    402 S          36.7893   14.9882    4.0877 S.3     1  UNL1        0.0000
    403 S           1.3626   28.6139    4.0877 S.3     1  UNL1        0.0000
    404 S          12.2631    6.8128    4.0877 S.3     1  UNL1        0.0000
    405 S          25.8888    6.8128    1.3626 S.3     1  UNL1        0.0000
    406 S           4.0877   14.9882    4.0877 S.3     1  UNL1        0.0000
    407 S           4.0877   28.6139    1.3626 S.3     1  UNL1        0.0000
    408 S          34.0642   14.9882    1.3626 S.3     1  UNL1        0.0000
    409 S          34.0642   28.6139    4.0877 S.3     1  UNL1        0.0000
    410 S          14.9882    4.0877    4.0877 S.3     1  UNL1        0.0000
    411 S          28.6139    4.0877    1.3626 S.3     1  UNL1        0.0000
    412 S          14.9882   34.0642    1.3626 S.3     1  UNL1        0.0000
    413 S          28.6139   34.0642    4.0877 S.3     1  UNL1        0.0000
    414 S          14.9882    1.3626    1.3626 S.3     1  UNL1        0.0000
    415 S          28.6139   36.7893    1.3626 S.3     1  UNL1        0.0000
    416 S          14.9882   36.7893    4.0877 S.3     1  UNL1        0.0000
    417 S          28.6139    1.3626    4.0877 S.3     1  UNL1        0.0000
    418 S           6.8128   12.2631    4.0877 S.3     1  UNL1        0.0000
    419 S           6.8128   25.8888    1.3626 S.3     1  UNL1        0.0000
    420 S          14.9882    6.8128    1.3626 S.3     1  UNL1        0.0000
    421 S          28.6139    6.8128    4.0877 S.3     1  UNL1        0.0000
    422 S           6.8128   14.9882    1.3626 S.3     1  UNL1        0.0000
    423 S           6.8128   28.6139    4.0877 S.3     1  UNL1        0.0000
    424 S           1.3626   17.7134    4.0877 S.3     1  UNL1        0.0000
    425 S          36.7893   20.4385    4.0877 S.3     1  UNL1        0.0000
    426 S          36.7893   17.7134    1.3626 S.3     1  UNL1        0.0000
    427 S           1.3626   20.4385    1.3626 S.3     1  UNL1        0.0000
    428 S          17.7134    4.0877    1.3626 S.3     1  UNL1        0.0000
    429 S          20.4385    4.0877    4.0877 S.3     1  UNL1        0.0000
    430 S          17.7134   34.0642    4.0877 S.3     1  UNL1        0.0000
    431 S          20.4385   34.0642    1.3626 S.3     1  UNL1        0.0000
    432 S          17.7134    1.3626    4.0877 S.3     1  UNL1        0.0000
    433 S          20.4385   36.7893    4.0877 S.3     1  UNL1        0.0000
    434 S          17.7134   36.7893    1.3626 S.3     1  UNL1        0.0000
    435 S          20.4385    1.3626    1.3626 S.3     1  UNL1        0.0000
    436 S           4.0877   17.7134    1.3626 S.3     1  UNL1        0.0000
    437 S           4.0877   20.4385    4.0877 S.3     1  UNL1        0.0000
    438 S          34.0642   17.7134    4.0877 S.3     1  UNL1        0.0000
    439 S          34.0642   20.4385    1.3626 S.3     1  UNL1        0.0000
    440 S          36.7893   23.1637    1.3626 S.3     1  UNL1        0.0000
    441 S           1.3626   23.1637    4.0877 S.3     1  UNL1        0.0000
    442 S          17.7134    6.8128    4.0877 S.3     1  UNL1        0.0000
    443 S          20.4385    6.8128    1.3626 S.3     1  UNL1        0.0000
    444 S           4.0877   23.1637    1.3626 S.3     1  UNL1        0.0000
    445 S          34.0642   23.1637    4.0877 S.3     1  UNL1        0.0000
    446 S          23.1637    4.0877    1.3626 S.3     1  UNL1        0.0000
    447 S          23.1637   34.0642    4.0877 S.3     1  UNL1        0.0000
    448 S          23.1637   36.7893    1.3626 S.3     1  UNL1        0.0000
    449 S          23.1637    1.3626    4.0877 S.3     1  UNL1        0.0000
    450 S           6.8128   17.7134    4.0877 S.3     1  UNL1        0.0000
    451 S           6.8128   20.4385    1.3626 S.3     1  UNL1        0.0000
    452 S          23.1637    6.8128    4.0877 S.3     1  UNL1        0.0000
    453 S           6.8128   23.1637    4.0877 S.3     1  UNL1        0.0000
    454 S          31.3391   31.3391    4.0877 S.3     1  UNL1        0.0000
    455 S          31.3391    9.5380    4.0877 S.3     1  UNL1        0.0000
    456 S           9.5380   31.3391    4.0877 S.3     1  UNL1        0.0000
    457 S           9.5380    9.5380    4.0877 S.3     1  UNL1        0.0000
    458 S          31.3391   25.8888    4.0877 S.3     1  UNL1        0.0000
    459 S          31.3391   12.2631    1.3626 S.3     1  UNL1        0.0000
    460 S          25.8888   31.3391    4.0877 S.3     1  UNL1        0.0000
    461 S          12.2631   31.3391    1.3626 S.3     1  UNL1        0.0000
    462 S          31.3391   28.6139    1.3626 S.3     1  UNL1        0.0000
    463 S          31.3391   14.9882    4.0877 S.3     1  UNL1        0.0000
    464 S          12.2631    9.5380    1.3626 S.3     1  UNL1        0.0000
    465 S          25.8888    9.5380    4.0877 S.3     1  UNL1        0.0000
    466 S           9.5380   12.2631    1.3626 S.3     1  UNL1        0.0000
    467 S           9.5380   25.8888    4.0877 S.3     1  UNL1        0.0000
    468 S          28.6139   31.3391    1.3626 S.3     1  UNL1        0.0000
    469 S          14.9882   31.3391    4.0877 S.3     1  UNL1        0.0000
    470 S           9.5380   14.9882    4.0877 S.3     1  UNL1        0.0000
    471 S           9.5380   28.6139    1.3626 S.3     1  UNL1        0.0000
    472 S          14.9882    9.5380    4.0877 S.3     1  UNL1        0.0000
    473 S          28.6139    9.5380    1.3626 S.3     1  UNL1        0.0000
    474 S          31.3391   20.4385    4.0877 S.3     1  UNL1        0.0000
    475 S          31.3391   17.7134    1.3626 S.3     1  UNL1        0.0000
    476 S          20.4385   31.3391    4.0877 S.3     1  UNL1        0.0000
    477 S          17.7134   31.3391    1.3626 S.3     1  UNL1        0.0000
    478 S          31.3391   23.1637    1.3626 S.3     1  UNL1        0.0000
    479 S          17.7134    9.5380    1.3626 S.3     1  UNL1        0.0000
    480 S          20.4385    9.5380    4.0877 S.3     1  UNL1        0.0000
    481 S           9.5380   17.7134    1.3626 S.3     1  UNL1        0.0000
    482 S           9.5380   20.4385    4.0877 S.3     1  UNL1        0.0000
    483 S          23.1637   31.3391    1.3626 S.3     1  UNL1        0.0000
    484 S           9.5380   23.1637    1.3626 S.3     1  UNL1        0.0000
    485 S          23.1637    9.5380    1.3626 S.3     1  UNL1        0.0000
    486 S          12.2631   12.2631    4.0877 S.3     1  UNL1        0.0000
    487 S          25.8888   25.8888    4.0877 S.3     1  UNL1        0.0000
    488 S          25.8888   12.2631    1.3626 S.3     1  UNL1        0.0000
    489 S          12.2631   25.8888    1.3626 S.3     1  UNL1        0.0000
    490 S          12.2631   14.9882    1.3626 S.3     1  UNL1        0.0000
    491 S          25.8888   28.6139    1.3626 S.3     1  UNL1        0.0000
    492 S          25.8888   14.9882    4.0877 S.3     1  UNL1        0.0000
    493 S          12.2631   28.6139    4.0877 S.3     1  UNL1        0.0000
    494 S          14.9882   12.2631    1.3626 S.3     1  UNL1        0.0000
    495 S          28.6139   25.8888    1.3626 S.3     1  UNL1        0.0000
    496 S          28.6139   12.2631    4.0877 S.3     1  UNL1        0.0000
    497 S          14.9882   25.8888    4.0877 S.3     1  UNL1        0.0000
    498 S          14.9882   14.9882    4.0877 S.3     1  UNL1        0.0000
    499 S          28.6139   28.6139    4.0877 S.3     1  UNL1        0.0000
    500 S          28.6139   14.9882    1.3626 S.3     1  UNL1        0.0000
    501 S          14.9882   28.6139    1.3626 S.3     1  UNL1        0.0000
    502 S          12.2631   17.7134    4.0877 S.3     1  UNL1        0.0000
    503 S          25.8888   20.4385    4.0877 S.3     1  UNL1        0.0000
    504 S          25.8888   17.7134    1.3626 S.3     1  UNL1        0.0000
    505 S          12.2631   20.4385    1.3626 S.3     1  UNL1        0.0000
    506 S          17.7134   12.2631    4.0877 S.3     1  UNL1        0.0000
    507 S          20.4385   25.8888    4.0877 S.3     1  UNL1        0.0000
    508 S          17.7134   25.8888    1.3626 S.3     1  UNL1        0.0000
    509 S          20.4385   12.2631    1.3626 S.3     1  UNL1        0.0000
    510 S          25.8888   23.1637    1.3626 S.3     1  UNL1        0.0000
    511 S          12.2631   23.1637    4.0877 S.3     1  UNL1        0.0000
    512 S          17.7134   14.9882    1.3626 S.3     1  UNL1        0.0000
    513 S          20.4385   28.6139    1.3626 S.3     1  UNL1        0.0000
    514 S          17.7134   28.6139    4.0877 S.3     1  UNL1        0.0000
    515 S          20.4385   14.9882    4.0877 S.3     1  UNL1        0.0000
    516 S          14.9882   17.7134    1.3626 S.3     1  UNL1        0.0000
    517 S          28.6139   20.4385    1.3626 S.3     1  UNL1        0.0000
    518 S          28.6139   17.7134    4.0877 S.3     1  UNL1        0.0000
    519 S          14.9882   20.4385    4.0877 S.3     1  UNL1        0.0000
    520 S          23.1637   25.8888    1.3626 S.3     1  UNL1        0.0000
    521 S          23.1637   12.2631    4.0877 S.3     1  UNL1        0.0000
    522 S          28.6139   23.1637    4.0877 S.3     1  UNL1        0.0000
    523 S          14.9882   23.1637    1.3626 S.3     1  UNL1        0.0000
    524 S          23.1637   28.6139    4.0877 S.3     1  UNL1        0.0000
    525 S          23.1637   14.9882    1.3626 S.3     1  UNL1        0.0000
    526 S          17.7134   17.7134    4.0877 S.3     1  UNL1        0.0000
    527 S          20.4385   20.4385    4.0877 S.3     1  UNL1        0.0000
    528 S          20.4385   17.7134    1.3626 S.3     1  UNL1        0.0000
    529 S          17.7134   20.4385    1.3626 S.3     1  UNL1        0.0000
    530 S          20.4385   23.1637    1.3626 S.3     1  UNL1        0.0000
    531 S          17.7134   23.1637    4.0877 S.3     1  UNL1        0.0000
    532 S          23.1637   20.4385    1.3626 S.3     1  UNL1        0.0000
    533 S          23.1637   17.7134    4.0877 S.3     1  UNL1        0.0000
    534 S          23.1637   23.1637    4.0877 S.3     1  UNL1        0.0000
    535 S          -1.3626   -1.3626   -1.3626 S.3     1  UNL1        0.0000
    536 S          -1.3626    1.3626    1.3626 S.3     1  UNL1        0.0000
    537 S           1.3626   -1.3626    1.3626 S.3     1  UNL1        0.0000
    538 S           1.3626    1.3626   -1.3626 S.3     1  UNL1        0.0000
    539 S          -1.3626   -1.3626    4.0877 S.3     1  UNL1        0.0000
    540 S          -1.3626    1.3626    6.8128 S.3     1  UNL1        0.0000
    541 S           1.3626   -1.3626    6.8128 S.3     1  UNL1        0.0000
    542 S          -1.3626   36.7893   -1.3626 S.3     1  UNL1        0.0000
    543 S          -1.3626   39.5145    1.3626 S.3     1  UNL1        0.0000
    544 S           1.3626   39.5145   -1.3626 S.3     1  UNL1        0.0000
    545 S          -1.3626   36.7893    4.0877 S.3     1  UNL1        0.0000
    546 S          -1.3626   39.5145    6.8128 S.3     1  UNL1        0.0000
    547 S           1.3626   36.7893    6.8128 S.3     1  UNL1        0.0000
    548 S           1.3626   39.5145    4.0877 S.3     1  UNL1        0.0000
    549 S          36.7893   -1.3626   -1.3626 S.3     1  UNL1        0.0000
    550 S          39.5145   -1.3626    1.3626 S.3     1  UNL1        0.0000
    551 S          39.5145    1.3626   -1.3626 S.3     1  UNL1        0.0000
    552 S          36.7893   -1.3626    4.0877 S.3     1  UNL1        0.0000
    553 S          36.7893    1.3626    6.8128 S.3     1  UNL1        0.0000
    554 S          39.5145   -1.3626    6.8128 S.3     1  UNL1        0.0000
    555 S          39.5145    1.3626    4.0877 S.3     1  UNL1        0.0000
    556 S          36.7893   36.7893   -1.3626 S.3     1  UNL1        0.0000
    557 S          36.7893   39.5145    1.3626 S.3     1  UNL1        0.0000
    558 S          39.5145   36.7893    1.3626 S.3     1  UNL1        0.0000
    559 S          39.5145   39.5145   -1.3626 S.3     1  UNL1        0.0000
    560 S          36.7893   39.5145    6.8128 S.3     1  UNL1        0.0000
    561 S          39.5145   36.7893    6.8128 S.3     1  UNL1        0.0000
    562 S          39.5145   39.5145    4.0877 S.3     1  UNL1        0.0000
    563 S          -1.3626    4.0877    4.0877 S.3     1  UNL1        0.0000
    564 S          39.5145    4.0877    1.3626 S.3     1  UNL1        0.0000
    565 S           4.0877   -1.3626    4.0877 S.3     1  UNL1        0.0000
    566 S           4.0877   39.5145    1.3626 S.3     1  UNL1        0.0000
    567 S           4.0877    4.0877   -1.3626 S.3     1  UNL1        0.0000
    568 S           1.3626    4.0877    6.8128 S.3     1  UNL1        0.0000
    569 S           4.0877    1.3626    6.8128 S.3     1  UNL1        0.0000
    570 S          -1.3626    4.0877   -1.3626 S.3     1  UNL1        0.0000
    571 S          -1.3626    6.8128    1.3626 S.3     1  UNL1        0.0000
    572 S           1.3626    6.8128   -1.3626 S.3     1  UNL1        0.0000
    573 S          -1.3626    6.8128    6.8128 S.3     1  UNL1        0.0000
    574 S          36.7893    4.0877   -1.3626 S.3     1  UNL1        0.0000
    575 S          39.5145    6.8128   -1.3626 S.3     1  UNL1        0.0000
    576 S          36.7893    6.8128    6.8128 S.3     1  UNL1        0.0000
    577 S          39.5145    4.0877    6.8128 S.3     1  UNL1        0.0000
    578 S          39.5145    6.8128    4.0877 S.3     1  UNL1        0.0000
    579 S          -1.3626   31.3391   -1.3626 S.3     1  UNL1        0.0000
    580 S          -1.3626   34.0642    1.3626 S.3     1  UNL1        0.0000
    581 S           1.3626   34.0642   -1.3626 S.3     1  UNL1        0.0000
    582 S          -1.3626   31.3391    4.0877 S.3     1  UNL1        0.0000
    583 S          -1.3626   34.0642    6.8128 S.3     1  UNL1        0.0000
    584 S           1.3626   31.3391    6.8128 S.3     1  UNL1        0.0000
    585 S          36.7893   31.3391   -1.3626 S.3     1  UNL1        0.0000
    586 S          39.5145   31.3391    1.3626 S.3     1  UNL1        0.0000
    587 S          39.5145   34.0642   -1.3626 S.3     1  UNL1        0.0000
    588 S          36.7893   34.0642    6.8128 S.3     1  UNL1        0.0000
    589 S          39.5145   31.3391    6.8128 S.3     1  UNL1        0.0000
    590 S          39.5145   34.0642    4.0877 S.3     1  UNL1        0.0000
    591 S           4.0877   -1.3626   -1.3626 S.3     1  UNL1        0.0000
    592 S           6.8128   -1.3626    1.3626 S.3     1  UNL1        0.0000
    593 S           6.8128    1.3626   -1.3626 S.3     1  UNL1        0.0000
    594 S           6.8128   -1.3626    6.8128 S.3     1  UNL1        0.0000
    595 S           4.0877   36.7893   -1.3626 S.3     1  UNL1        0.0000
    596 S           6.8128   39.5145   -1.3626 S.3     1  UNL1        0.0000
    597 S           4.0877   39.5145    6.8128 S.3     1  UNL1        0.0000
    598 S           6.8128   36.7893    6.8128 S.3     1  UNL1        0.0000
    599 S           6.8128   39.5145    4.0877 S.3     1  UNL1        0.0000
    600 S          31.3391   -1.3626   -1.3626 S.3     1  UNL1        0.0000
    601 S          34.0642   -1.3626    1.3626 S.3     1  UNL1        0.0000
    602 S          34.0642    1.3626   -1.3626 S.3     1  UNL1        0.0000
    603 S          31.3391   -1.3626    4.0877 S.3     1  UNL1        0.0000
    604 S          31.3391    1.3626    6.8128 S.3     1  UNL1        0.0000
    605 S          34.0642   -1.3626    6.8128 S.3     1  UNL1        0.0000
    606 S          31.3391   36.7893   -1.3626 S.3     1  UNL1        0.0000
    607 S          31.3391   39.5145    1.3626 S.3     1  UNL1        0.0000
    608 S          34.0642   39.5145   -1.3626 S.3     1  UNL1        0.0000
    609 S          31.3391   39.5145    6.8128 S.3     1  UNL1        0.0000
    610 S          34.0642   36.7893    6.8128 S.3     1  UNL1        0.0000
    611 S          34.0642   39.5145    4.0877 S.3     1  UNL1        0.0000
    612 S          -1.3626    9.5380    4.0877 S.3     1  UNL1        0.0000
    613 S          39.5145    9.5380    1.3626 S.3     1  UNL1        0.0000
    614 S           9.5380   -1.3626    4.0877 S.3     1  UNL1        0.0000
    615 S           9.5380   39.5145    1.3626 S.3     1  UNL1        0.0000
    616 S           4.0877    9.5380   -1.3626 S.3     1  UNL1        0.0000
    617 S           1.3626    9.5380    6.8128 S.3     1  UNL1        0.0000
    618 S           4.0877    6.8128    6.8128 S.3     1  UNL1        0.0000
    619 S           4.0877   34.0642    6.8128 S.3     1  UNL1        0.0000
    620 S           9.5380    4.0877   -1.3626 S.3     1  UNL1        0.0000
    621 S           6.8128    4.0877    6.8128 S.3     1  UNL1        0.0000
    622 S           9.5380    1.3626    6.8128 S.3     1  UNL1        0.0000
    623 S          34.0642    4.0877    6.8128 S.3     1  UNL1        0.0000
    624 S          -1.3626    9.5380   -1.3626 S.3     1  UNL1        0.0000
    625 S          -1.3626   12.2631    1.3626 S.3     1  UNL1        0.0000
    626 S           1.3626   12.2631   -1.3626 S.3     1  UNL1        0.0000
    627 S          -1.3626   12.2631    6.8128 S.3     1  UNL1        0.0000
    628 S          36.7893    9.5380   -1.3626 S.3     1  UNL1        0.0000
    629 S          39.5145   12.2631   -1.3626 S.3     1  UNL1        0.0000
    630 S          36.7893   12.2631    6.8128 S.3     1  UNL1        0.0000
    631 S          39.5145    9.5380    6.8128 S.3     1  UNL1        0.0000
    632 S          39.5145   12.2631    4.0877 S.3     1  UNL1        0.0000
    633 S          -1.3626   25.8888   -1.3626 S.3     1  UNL1        0.0000
    634 S          -1.3626   28.6139    1.3626 S.3     1  UNL1        0.0000
    635 S           1.3626   28.6139   -1.3626 S.3     1  UNL1        0.0000
    636 S          -1.3626   25.8888    4.0877 S.3     1  UNL1        0.0000
    637 S          -1.3626   28.6139    6.8128 S.3     1  UNL1        0.0000
    638 S           1.3626   25.8888    6.8128 S.3     1  UNL1        0.0000
    639 S          36.7893   25.8888   -1.3626 S.3     1  UNL1        0.0000
    640 S          39.5145   25.8888    1.3626 S.3     1  UNL1        0.0000
    641 S          39.5145   28.6139   -1.3626 S.3     1  UNL1        0.0000
    642 S          36.7893   28.6139    6.8128 S.3     1  UNL1        0.0000
    643 S          39.5145   25.8888    6.8128 S.3     1  UNL1        0.0000
    644 S          39.5145   28.6139    4.0877 S.3     1  UNL1        0.0000
    645 S           9.5380   -1.3626   -1.3626 S.3     1  UNL1        0.0000
    646 S          12.2631   -1.3626    1.3626 S.3     1  UNL1        0.0000
    647 S          12.2631    1.3626   -1.3626 S.3     1  UNL1        0.0000
    648 S          12.2631   -1.3626    6.8128 S.3     1  UNL1        0.0000
    649 S           9.5380   36.7893   -1.3626 S.3     1  UNL1        0.0000
    650 S          12.2631   39.5145   -1.3626 S.3     1  UNL1        0.0000
    651 S           9.5380   39.5145    6.8128 S.3     1  UNL1        0.0000
    652 S          12.2631   36.7893    6.8128 S.3     1  UNL1        0.0000
    653 S          12.2631   39.5145    4.0877 S.3     1  UNL1        0.0000
    654 S          25.8888   -1.3626   -1.3626 S.3     1  UNL1        0.0000
    655 S          28.6139   -1.3626    1.3626 S.3     1  UNL1        0.0000
    656 S          28.6139    1.3626   -1.3626 S.3     1  UNL1        0.0000
    657 S          25.8888   -1.3626    4.0877 S.3     1  UNL1        0.0000
    658 S          25.8888    1.3626    6.8128 S.3     1  UNL1        0.0000
    659 S          28.6139   -1.3626    6.8128 S.3     1  UNL1        0.0000
    660 S          25.8888   36.7893   -1.3626 S.3     1  UNL1        0.0000
    661 S          25.8888   39.5145    1.3626 S.3     1  UNL1        0.0000
    662 S          28.6139   39.5145   -1.3626 S.3     1  UNL1        0.0000
    663 S          25.8888   39.5145    6.8128 S.3     1  UNL1        0.0000
    664 S          28.6139   36.7893    6.8128 S.3     1  UNL1        0.0000
    665 S          28.6139   39.5145    4.0877 S.3     1  UNL1        0.0000
    666 S          -1.3626   14.9882    4.0877 S.3     1  UNL1        0.0000
    667 S          39.5145   14.9882    1.3626 S.3     1  UNL1        0.0000
    668 S          14.9882   -1.3626    4.0877 S.3     1  UNL1        0.0000
    669 S          14.9882   39.5145    1.3626 S.3     1  UNL1        0.0000
    670 S           4.0877   14.9882   -1.3626 S.3     1  UNL1        0.0000
    671 S           1.3626   14.9882    6.8128 S.3     1  UNL1        0.0000
    672 S           4.0877   12.2631    6.8128 S.3     1  UNL1        0.0000
    673 S           4.0877   31.3391   -1.3626 S.3     1  UNL1        0.0000
    674 S           4.0877   28.6139    6.8128 S.3     1  UNL1        0.0000
    675 S          14.9882    4.0877   -1.3626 S.3     1  UNL1        0.0000
    676 S          12.2631    4.0877    6.8128 S.3     1  UNL1        0.0000
    677 S          14.9882    1.3626    6.8128 S.3     1  UNL1        0.0000
    678 S          31.3391    4.0877   -1.3626 S.3     1  UNL1        0.0000
    679 S          28.6139    4.0877    6.8128 S.3     1  UNL1        0.0000
    680 S          -1.3626   14.9882   -1.3626 S.3     1  UNL1        0.0000
    681 S          -1.3626   17.7134    1.3626 S.3     1  UNL1        0.0000
    682 S           1.3626   17.7134   -1.3626 S.3     1  UNL1        0.0000
    683 S          -1.3626   17.7134    6.8128 S.3     1  UNL1        0.0000
    684 S          36.7893   14.9882   -1.3626 S.3     1  UNL1        0.0000
    685 S          39.5145   17.7134   -1.3626 S.3     1  UNL1        0.0000
    686 S          36.7893   17.7134    6.8128 S.3     1  UNL1        0.0000
    687 S          39.5145   14.9882    6.8128 S.3     1  UNL1        0.0000
    688 S          39.5145   17.7134    4.0877 S.3     1  UNL1        0.0000
    689 S          -1.3626   20.4385   -1.3626 S.3     1  UNL1        0.0000
    690 S          -1.3626   23.1637    1.3626 S.3     1  UNL1        0.0000
    691 S           1.3626   23.1637   -1.3626 S.3     1  UNL1        0.0000
    692 S          -1.3626   20.4385    4.0877 S.3     1  UNL1        0.0000
    693 S          -1.3626   23.1637    6.8128 S.3     1  UNL1        0.0000
    694 S           1.3626   20.4385    6.8128 S.3     1  UNL1        0.0000
    695 S          36.7893   20.4385   -1.3626 S.3     1  UNL1        0.0000
    696 S          39.5145   20.4385    1.3626 S.3     1  UNL1        0.0000
    697 S          39.5145   23.1637   -1.3626 S.3     1  UNL1        0.0000
    698 S          36.7893   23.1637    6.8128 S.3     1  UNL1        0.0000
    699 S          39.5145   20.4385    6.8128 S.3     1  UNL1        0.0000
    700 S          39.5145   23.1637    4.0877 S.3     1  UNL1        0.0000
    701 S          14.9882   -1.3626   -1.3626 S.3     1  UNL1        0.0000
    702 S          17.7134   -1.3626    1.3626 S.3     1  UNL1        0.0000
    703 S          17.7134    1.3626   -1.3626 S.3     1  UNL1        0.0000
    704 S          17.7134   -1.3626    6.8128 S.3     1  UNL1        0.0000
    705 S          14.9882   36.7893   -1.3626 S.3     1  UNL1        0.0000
    706 S          17.7134   39.5145   -1.3626 S.3     1  UNL1        0.0000
    707 S          14.9882   39.5145    6.8128 S.3     1  UNL1        0.0000
    708 S          17.7134   36.7893    6.8128 S.3     1  UNL1        0.0000
    709 S          17.7134   39.5145    4.0877 S.3     1  UNL1        0.0000
    710 S          20.4385   -1.3626   -1.3626 S.3     1  UNL1        0.0000
    711 S          23.1637   -1.3626    1.3626 S.3     1  UNL1        0.0000
    712 S          23.1637    1.3626   -1.3626 S.3     1  UNL1        0.0000
    713 S          20.4385   -1.3626    4.0877 S.3     1  UNL1        0.0000
    714 S          20.4385    1.3626    6.8128 S.3     1  UNL1        0.0000
    715 S          23.1637   -1.3626    6.8128 S.3     1  UNL1        0.0000
    716 S          20.4385   36.7893   -1.3626 S.3     1  UNL1        0.0000
    717 S          20.4385   39.5145    1.3626 S.3     1  UNL1        0.0000
    718 S          23.1637   39.5145   -1.3626 S.3     1  UNL1        0.0000
    719 S          20.4385   39.5145    6.8128 S.3     1  UNL1        0.0000
    720 S          23.1637   36.7893    6.8128 S.3     1  UNL1        0.0000
    721 S          23.1637   39.5145    4.0877 S.3     1  UNL1        0.0000
    722 S           4.0877   20.4385   -1.3626 S.3     1  UNL1        0.0000
    723 S           4.0877   17.7134    6.8128 S.3     1  UNL1        0.0000
    724 S           4.0877   25.8888   -1.3626 S.3     1  UNL1        0.0000
    725 S           4.0877   23.1637    6.8128 S.3     1  UNL1        0.0000
    726 S          20.4385    4.0877   -1.3626 S.3     1  UNL1        0.0000
    727 S          17.7134    4.0877    6.8128 S.3     1  UNL1        0.0000
    728 S          25.8888    4.0877   -1.3626 S.3     1  UNL1        0.0000
    729 S          23.1637    4.0877    6.8128 S.3     1  UNL1        0.0000
    730 S           6.8128    6.8128   -1.3626 S.3     1  UNL1        0.0000
    731 S          31.3391   31.3391   -1.3626 S.3     1  UNL1        0.0000
    732 S          34.0642   34.0642   -1.3626 S.3     1  UNL1        0.0000
    733 S          31.3391   34.0642    6.8128 S.3     1  UNL1        0.0000
    734 S          34.0642   31.3391    6.8128 S.3     1  UNL1        0.0000
    735 S          34.0642    6.8128   -1.3626 S.3     1  UNL1        0.0000
    736 S          31.3391    6.8128    6.8128 S.3     1  UNL1        0.0000
    737 S           6.8128   34.0642   -1.3626 S.3     1  UNL1        0.0000
    738 S           6.8128   31.3391    6.8128 S.3     1  UNL1        0.0000
    739 S           9.5380    9.5380   -1.3626 S.3     1  UNL1        0.0000
    740 S           6.8128    9.5380    6.8128 S.3     1  UNL1        0.0000
    741 S           9.5380    6.8128    6.8128 S.3     1  UNL1        0.0000
    742 S          34.0642    9.5380    6.8128 S.3     1  UNL1        0.0000
    743 S           9.5380   34.0642    6.8128 S.3     1  UNL1        0.0000
    744 S           6.8128   12.2631   -1.3626 S.3     1  UNL1        0.0000
    745 S          31.3391   25.8888   -1.3626 S.3     1  UNL1        0.0000
    746 S          34.0642   28.6139   -1.3626 S.3     1  UNL1        0.0000
    747 S          31.3391   28.6139    6.8128 S.3     1  UNL1        0.0000
    748 S          34.0642   25.8888    6.8128 S.3     1  UNL1        0.0000
    749 S          31.3391    9.5380   -1.3626 S.3     1  UNL1        0.0000
    750 S          34.0642   12.2631   -1.3626 S.3     1  UNL1        0.0000
    751 S          31.3391   12.2631    6.8128 S.3     1  UNL1        0.0000
    752 S           6.8128   28.6139   -1.3626 S.3     1  UNL1        0.0000
    753 S           6.8128   25.8888    6.8128 S.3     1  UNL1        0.0000
    754 S          12.2631    6.8128   -1.3626 S.3     1  UNL1        0.0000
    755 S          25.8888   31.3391   -1.3626 S.3     1  UNL1        0.0000
    756 S          28.6139   34.0642   -1.3626 S.3     1  UNL1        0.0000
    757 S          25.8888   34.0642    6.8128 S.3     1  UNL1        0.0000
    758 S          28.6139   31.3391    6.8128 S.3     1  UNL1        0.0000
    759 S           9.5380   31.3391   -1.3626 S.3     1  UNL1        0.0000
    760 S          12.2631   34.0642   -1.3626 S.3     1  UNL1        0.0000
    761 S          12.2631   31.3391    6.8128 S.3     1  UNL1        0.0000
    762 S          28.6139    6.8128   -1.3626 S.3     1  UNL1        0.0000
    763 S          25.8888    6.8128    6.8128 S.3     1  UNL1        0.0000
    764 S           9.5380   14.9882   -1.3626 S.3     1  UNL1        0.0000
    765 S           6.8128   14.9882    6.8128 S.3     1  UNL1        0.0000
    766 S           9.5380   12.2631    6.8128 S.3     1  UNL1        0.0000
    767 S          34.0642   14.9882    6.8128 S.3     1  UNL1        0.0000
    768 S           9.5380   28.6139    6.8128 S.3     1  UNL1        0.0000
    769 S          14.9882    9.5380   -1.3626 S.3     1  UNL1        0.0000
    770 S          12.2631    9.5380    6.8128 S.3     1  UNL1        0.0000
    771 S          14.9882    6.8128    6.8128 S.3     1  UNL1        0.0000
    772 S          14.9882   34.0642    6.8128 S.3     1  UNL1        0.0000
    773 S          28.6139    9.5380    6.8128 S.3     1  UNL1        0.0000
    774 S           6.8128   17.7134   -1.3626 S.3     1  UNL1        0.0000
    775 S          31.3391   20.4385   -1.3626 S.3     1  UNL1        0.0000
    776 S          34.0642   23.1637   -1.3626 S.3     1  UNL1        0.0000
    777 S          31.3391   23.1637    6.8128 S.3     1  UNL1        0.0000
    778 S          34.0642   20.4385    6.8128 S.3     1  UNL1        0.0000
    779 S          31.3391   14.9882   -1.3626 S.3     1  UNL1        0.0000
    780 S          34.0642   17.7134   -1.3626 S.3     1  UNL1        0.0000
    781 S          31.3391   17.7134    6.8128 S.3     1  UNL1        0.0000
    782 S           6.8128   23.1637   -1.3626 S.3     1  UNL1        0.0000
    783 S           6.8128   20.4385    6.8128 S.3     1  UNL1        0.0000
    784 S          17.7134    6.8128   -1.3626 S.3     1  UNL1        0.0000
    785 S          20.4385   31.3391   -1.3626 S.3     1  UNL1        0.0000
    786 S          23.1637   34.0642   -1.3626 S.3     1  UNL1        0.0000
    787 S          20.4385   34.0642    6.8128 S.3     1  UNL1        0.0000
    788 S          23.1637   31.3391    6.8128 S.3     1  UNL1        0.0000
    789 S          14.9882   31.3391   -1.3626 S.3     1  UNL1        0.0000
    790 S          17.7134   34.0642   -1.3626 S.3     1  UNL1        0.0000
    791 S          17.7134   31.3391    6.8128 S.3     1  UNL1        0.0000
    792 S          23.1637    6.8128   -1.3626 S.3     1  UNL1        0.0000
    793 S          20.4385    6.8128    6.8128 S.3     1  UNL1        0.0000
    794 S           9.5380   20.4385   -1.3626 S.3     1  UNL1        0.0000
    795 S           9.5380   17.7134    6.8128 S.3     1  UNL1        0.0000
    796 S           9.5380   25.8888   -1.3626 S.3     1  UNL1        0.0000
    797 S           9.5380   23.1637    6.8128 S.3     1  UNL1        0.0000
    798 S          20.4385    9.5380   -1.3626 S.3     1  UNL1        0.0000
    799 S          17.7134    9.5380    6.8128 S.3     1  UNL1        0.0000
    800 S          25.8888    9.5380   -1.3626 S.3     1  UNL1        0.0000
    801 S          23.1637    9.5380    6.8128 S.3     1  UNL1        0.0000
    802 S          12.2631   12.2631   -1.3626 S.3     1  UNL1        0.0000
    803 S          25.8888   25.8888   -1.3626 S.3     1  UNL1        0.0000
    804 S          28.6139   28.6139   -1.3626 S.3     1  UNL1        0.0000
    805 S          25.8888   28.6139    6.8128 S.3     1  UNL1        0.0000
    806 S          28.6139   25.8888    6.8128 S.3     1  UNL1        0.0000
    807 S          28.6139   12.2631   -1.3626 S.3     1  UNL1        0.0000
    808 S          25.8888   12.2631    6.8128 S.3     1  UNL1        0.0000
    809 S          12.2631   28.6139   -1.3626 S.3     1  UNL1        0.0000
    810 S          12.2631   25.8888    6.8128 S.3     1  UNL1        0.0000
    811 S          14.9882   14.9882   -1.3626 S.3     1  UNL1        0.0000
    812 S          12.2631   14.9882    6.8128 S.3     1  UNL1        0.0000
    813 S          14.9882   12.2631    6.8128 S.3     1  UNL1        0.0000
    814 S          28.6139   14.9882    6.8128 S.3     1  UNL1        0.0000
    815 S          14.9882   28.6139    6.8128 S.3     1  UNL1        0.0000
    816 S          12.2631   17.7134   -1.3626 S.3     1  UNL1        0.0000
    817 S          25.8888   20.4385   -1.3626 S.3     1  UNL1        0.0000
    818 S          28.6139   23.1637   -1.3626 S.3     1  UNL1        0.0000
    819 S          25.8888   23.1637    6.8128 S.3     1  UNL1        0.0000
    820 S          28.6139   20.4385    6.8128 S.3     1  UNL1        0.0000
    821 S          25.8888   14.9882   -1.3626 S.3     1  UNL1        0.0000
    822 S          28.6139   17.7134   -1.3626 S.3     1  UNL1        0.0000
    823 S          25.8888   17.7134    6.8128 S.3     1  UNL1        0.0000
    824 S          12.2631   23.1637   -1.3626 S.3     1  UNL1        0.0000
    825 S          12.2631   20.4385    6.8128 S.3     1  UNL1        0.0000
    826 S          17.7134   12.2631   -1.3626 S.3     1  UNL1        0.0000
    827 S          20.4385   25.8888   -1.3626 S.3     1  UNL1        0.0000
    828 S          23.1637   28.6139   -1.3626 S.3     1  UNL1        0.0000
    829 S          20.4385   28.6139    6.8128 S.3     1  UNL1        0.0000
    830 S          23.1637   25.8888    6.8128 S.3     1  UNL1        0.0000
    831 S          14.9882   25.8888   -1.3626 S.3     1  UNL1        0.0000
    832 S          17.7134   28.6139   -1.3626 S.3     1  UNL1        0.0000
    833 S          17.7134   25.8888    6.8128 S.3     1  UNL1        0.0000
    834 S          23.1637   12.2631   -1.3626 S.3     1  UNL1        0.0000
    835 S          20.4385   12.2631    6.8128 S.3     1  UNL1        0.0000
    836 S          14.9882   20.4385   -1.3626 S.3     1  UNL1        0.0000
    837 S          14.9882   17.7134    6.8128 S.3     1  UNL1        0.0000
    838 S          14.9882   23.1637    6.8128 S.3     1  UNL1        0.0000
    839 S          20.4385   14.9882   -1.3626 S.3     1  UNL1        0.0000
    840 S          17.7134   14.9882    6.8128 S.3     1  UNL1        0.0000
    841 S          23.1637   14.9882    6.8128 S.3     1  UNL1        0.0000
    842 S          17.7134   17.7134   -1.3626 S.3     1  UNL1        0.0000
    843 S          20.4385   20.4385   -1.3626 S.3     1  UNL1        0.0000
    844 S          23.1637   23.1637   -1.3626 S.3     1  UNL1        0.0000
    845 S          20.4385   23.1637    6.8128 S.3     1  UNL1        0.0000
    846 S          23.1637   20.4385    6.8128 S.3     1  UNL1        0.0000
    847 S          23.1637   17.7134   -1.3626 S.3     1  UNL1        0.0000
    848 S          20.4385   17.7134    6.8128 S.3     1  UNL1        0.0000
    849 S          17.7134   23.1637   -1.3626 S.3     1  UNL1        0.0000
    850 S          17.7134   20.4385    6.8128 S.3     1  UNL1        0.0000
@<TRIPOS>BOND
     1   660   237    1
     2   660    65    1
     3   633    55    1
     4   572    43    1
     5   572    15    1
     6   570    15    1
     7   635    55    1
     8   635    81    1
     9   567   123    1
    10   567    13    1
    11   662    65    1
    12   639   229    1
    13   639    57    1
    14   559     7    1
    15   780   199    1
    16   780   231    1
    17   782   233    1
    18   782   201    1
    19   779   199    1
    20   779   263    1
    21   776   197    1
    22   776   229    1
    23   775   197    1
    24   775   303    1
    25   656    63    1
    26   656    85    1
    27   774   195    1
    28   774   227    1
    29   769   275    1
    30   769   187    1
    31   764   267    1
    32   764   179    1
    33   712    99    1
    34   712   121    1
    35   705   191    1
    36   705    97    1
    37   629    53    1
    38   575    17    1
    39   574    17    1
    40   574    49    1
    41   802   243    1
    42   802   259    1
    43   800   247    1
    44   800   241    1
    45   798   281    1
    46   798   235    1
    47   703    95    1
    48   703   119    1
    49   796   249    1
    50   796   233    1
    51   794   273    1
    52   794   227    1
    53   762   193    1
    54   762   161    1
    55   792   241    1
    56   792   209    1
    57   790   239    1
    58   790   207    1
    59   706    97    1
    60   789   265    1
    61   789   207    1
    62   786   237    1
    63   786   205    1
    64   785   205    1
    65   785   311    1
    66   710    99    1
    67   784   235    1
    68   784   203    1
    69   647    59    1
    70   647    83    1
    71   746   181    1
    72   746   149    1
    73   745   301    1
    74   745   149    1
    75   726   209    1
    76   726   119    1
    77   744   179    1
    78   744   147    1
    79   739   243    1
    80   739   139    1
    81   544     3    1
    82   728   121    1
    83   728   161    1
    84   542     3    1
    85   650    61    1
    86   724   117    1
    87   724   153    1
    88   538     1    1
    89   538    13    1
    90   730   123    1
    91   730   139    1
    92   535     1    1
    93   654    63    1
    94   731   261    1
    95   731   125    1
    96   732   125    1
    97   732   141    1
    98   735   143    1
    99   735   127    1
   100   737   145    1
   101   737   129    1
   102   759   185    1
   103   759   159    1
   104   556     7    1
   105   556   141    1
   106   641    57    1
   107   551     5    1
   108   649    61    1
   109   649   145    1
   110   549     5    1
   111   645    59    1
   112   716   239    1
   113   716   101    1
   114   760   191    1
   115   760   159    1
   116   673    81    1
   117   673   129    1
   118   756   189    1
   119   756   157    1
   120   718   101    1
   121   755   309    1
   122   755   157    1
   123   754   187    1
   124   754   155    1
   125   752   185    1
   126   752   153    1
   127   722   201    1
   128   722   115    1
   129   750   183    1
   130   750   151    1
   131   749   193    1
   132   749   151    1
   133   593    23    1
   134   593    47    1
   135   680    87    1
   136   818   269    1
   137   818   301    1
   138   843   317    1
   139   843   331    1
   140   821   271    1
   141   821   313    1
   142   842   315    1
   143   842   331    1
   144   822   271    1
   145   822   303    1
   146   824   273    1
   147   824   305    1
   148   839   307    1
   149   839   319    1
   150   691    91    1
   151   691   117    1
   152   826   275    1
   153   826   307    1
   154   682    87    1
   155   682   115    1
   156   624    51    1
   157   836   321    1
   158   836   299    1
   159   591    23    1
   160   670   195    1
   161   670    79    1
   162   620    47    1
   163   620   155    1
   164   834   281    1
   165   834   313    1
   166   595    25    1
   167   595    45    1
   168   684   183    1
   169   684    89    1
   170   596    25    1
   171   616    43    1
   172   616   147    1
   173   689    91    1
   174   600    27    1
   175   832   279    1
   176   832   311    1
   177   602    27    1
   178   602    49    1
   179   827   277    1
   180   827   337    1
   181   828   277    1
   182   828   309    1
   183   685    89    1
   184   831   279    1
   185   831   305    1
   186   804   245    1
   187   804   261    1
   188   701    95    1
   189   581    19    1
   190   581    45    1
   191   579    19    1
   192   628    53    1
   193   628   143    1
   194   626    51    1
   195   626    79    1
   196   585   181    1
   197   585    21    1
   198   587    21    1
   199   849   321    1
   200   849   337    1
   201   803   245    1
   202   803   333    1
   203   697    93    1
   204   675   203    1
   205   675    83    1
   206   817   269    1
   207   817   335    1
   208   847   319    1
   209   847   335    1
   210   807   247    1
   211   807   263    1
   212   606   189    1
   213   606    29    1
   214   844   317    1
   215   844   333    1
   216   809   249    1
   217   809   265    1
   218   678    85    1
   219   678   127    1
   220   811   259    1
   221   811   315    1
   222   608    29    1
   223   816   267    1
   224   816   299    1
   225   695   231    1
   226   695    93    1
   227   275   479    1
   228   275   494    1
   229   277   520    1
   230   277   513    1
   231   199   408    1
   232   199   475    1
   233   269   517    1
   234   269   510    1
   235   197   478    1
   236   197   439    1
   237   181   401    1
   238   181   369    1
   239     1   537    1
   240     1   536    1
   241   281   509    1
   242   281   485    1
   243   183   386    1
   244   183   408    1
   245   193   373    1
   246   193   473    1
   247   191   394    1
   248   191   412    1
   249   185   381    1
   250   185   471    1
   251   273   484    1
   252   273   505    1
   253   195   436    1
   254   195   422    1
   255   271   500    1
   256   271   504    1
   257   189   364    1
   258   189   415    1
   259   187   420    1
   260   187   464    1
   261   279   508    1
   262   279   501    1
   263   245   491    1
   264   245   495    1
   265   309   483    1
   266   309   491    1
   267   307   512    1
   268   307   509    1
   269   249   471    1
   270   249   489    1
   271   227   451    1
   272   227   481    1
   273   247   473    1
   274   247   488    1
   275   229   399    1
   276   229   440    1
   277   303   517    1
   278   303   475    1
   279   231   426    1
   280   231   439    1
   281   301   478    1
   282   301   495    1
   283   233   419    1
   284   233   484    1
   285   243   466    1
   286   243   464    1
   287   235   443    1
   288   235   479    1
   289   241   405    1
   290   241   485    1
   291   237   391    1
   292   237   448    1
   293   305   523    1
   294   305   489    1
   295   239   434    1
   296   239   431    1
   297   261   468    1
   298   261   462    1
   299   267   481    1
   300   267   490    1
   301   203   428    1
   302   203   420    1
   303   265   461    1
   304   265   501    1
   305   205   431    1
   306   205   483    1
   307   207   412    1
   308   207   477    1
   309   263   459    1
   310   263   500    1
   311   209   446    1
   312   209   443    1
   313   321   523    1
   314   321   529    1
   315   201   451    1
   316   201   444    1
   317   319   528    1
   318   319   525    1
   319   317   532    1
   320   317   530    1
   321   259   490    1
   322   259   494    1
   323   315   516    1
   324   315   512    1
   325   313   525    1
   326   313   488    1
   327   299   516    1
   328   299   505    1
   329   311   513    1
   330   311   477    1
   331    27   366    1
   332    27   601    1
   333    89   426    1
   334    89   667    1
   335    91   427    1
   336    91   690    1
   337    93   440    1
   338    93   696    1
   339    95   414    1
   340    95   702    1
   341    97   434    1
   342    97   669    1
   343    99   435    1
   344    99   711    1
   345   101   448    1
   346   101   717    1
   347    29   607    1
   348    29   345    1
   349    87   400    1
   350    87   681    1
   351    25   356    1
   352    25   566    1
   353    23   592    1
   354    23   343    1
   355    21   586    1
   356    21   350    1
   357    19   361    1
   358    19   580    1
   359    17   354    1
   360    17   564    1
   361   115   436    1
   362   115   427    1
   363   117   387    1
   364   117   444    1
   365   119   435    1
   366   119   428    1
   367    61   394    1
   368    61   615    1
   369    47   358    1
   370    47   379    1
   371    49   341    1
   372    49   352    1
   373    51   370    1
   374    51   625    1
   375    53   386    1
   376    53   613    1
   377    45   357    1
   378    45   342    1
   379    55   387    1
   380    55   634    1
   381    57   401    1
   382    57   640    1
   383    59   379    1
   384    59   646    1
   385   179   422    1
   386   179   466    1
   387    63   395    1
   388    63   655    1
   389    65   415    1
   390    65   661    1
   391    43   359    1
   392    43   370    1
   393    79   396    1
   394    79   400    1
   395    81   407    1
   396    81   361    1
   397    83   388    1
   398    83   414    1
   399    85   366    1
   400    85   411    1
   401   121   395    1
   402   121   446    1
   403   331   529    1
   404   331   528    1
   405   333   520    1
   406   333   510    1
   407   335   532    1
   408   335   504    1
   409   337   530    1
   410   337   508    1
   411   161   405    1
   412   161   411    1
   413   159   378    1
   414   159   461    1
   415   157   391    1
   416   157   468    1
   417   155   388    1
   418   155   382    1
   419   153   419    1
   420   153   407    1
   421   151   375    1
   422   151   459    1
   423   149   399    1
   424   149   462    1
   425     3   543    1
   426     3   342    1
   427   147   383    1
   428   147   396    1
   429   145   356    1
   430   145   378    1
   431   143   354    1
   432   143   375    1
   433     5   550    1
   434     5   341    1
   435   123   359    1
   436   123   358    1
   437   125   369    1
   438   125   364    1
   439    15   571    1
   440    15   347    1
   441    13   347    1
   442    13   343    1
   443   127   373    1
   444   127   352    1
   445   129   357    1
   446   129   381    1
   447     7   558    1
   448     7   557    1
   449   139   383    1
   450   139   382    1
   451   141   345    1
   452   141   350    1
   453   435   111    1
   454   435   108    1
   455   434   217    1
   456   434   112    1
   457   431   216    1
   458   431   225    1
   459   428   223    1
   460   428   107    1
   461   436   109    1
   462   436   211    1
   463   422   219    1
   464   422   163    1
   465   420   175    1
   466   420   215    1
   467   354   137    1
   468   354    32    1
   469   426   221    1
   470   426   104    1
   471   359   131    1
   472   359    37    1
   473   358   135    1
   474   358    35    1
   475   356   134    1
   476   356    40    1
   477   667    68    1
   478   427   110    1
   479   427   103    1
   480   357   134    1
   481   357    38    1
   482   378   138    1
   483   378   169    1
   484   388   175    1
   485   388    71    1
   486   387   105    1
   487   387    74    1
   488   386   173    1
   489   386    68    1
   490   383   131    1
   491   383   171    1
   492   382   135    1
   493   382   167    1
   494   391   224    1
   495   391   168    1
   496   394   169    1
   497   394    76    1
   498   381   138    1
   499   381   166    1
   500   395   113    1
   501   395    72    1
   502   379    71    1
   503   379    39    1
   504   396   163    1
   505   396    73    1
   506   399   172    1
   507   399   212    1
   508   400    67    1
   509   400   109    1
   510   401   172    1
   511   401    70    1
   512   419   174    1
   513   419   214    1
   514   375   133    1
   515   375   173    1
   516   373   133    1
   517   373   178    1
   518   405   170    1
   519   405   226    1
   520   370    31    1
   521   370    73    1
   522   407   166    1
   523   407    74    1
   524   369   136    1
   525   369   164    1
   526   408   221    1
   527   408   165    1
   528   366    36    1
   529   366    77    1
   530   364   132    1
   531   364   176    1
   532   411   178    1
   533   411    72    1
   534   361    69    1
   535   361    38    1
   536   412   217    1
   537   412   177    1
   538   414   107    1
   539   414    75    1
   540   415   168    1
   541   415    78    1
   542   523   294    1
   543   523   326    1
   544   646    75    1
   545   537    11    1
   546   536     9    1
   547   532   325    1
   548   532   328    1
   549   530   324    1
   550   530   330    1
   551   529   323    1
   552   529   330    1
   553   528   325    1
   554   528   327    1
   555   525   290    1
   556   525   329    1
   557   520   324    1
   558   520   296    1
   559   517   285    1
   560   517   292    1
   561   516   291    1
   562   516   323    1
   563   513   288    1
   564   513   297    1
   565   512   287    1
   566   512   327    1
   567   510   284    1
   568   510   328    1
   569   509   290    1
   570   509   295    1
   571   571    31    1
   572   607    78    1
   573   613    32    1
   574   601    41    1
   575   615    40    1
   576   592    39    1
   577   625    67    1
   578   586    70    1
   579   580    33    1
   580   508   326    1
   581   508   297    1
   582   634    69    1
   583   566    12    1
   584   564    10    1
   585   558    34    1
   586   557    42    1
   587   640   106    1
   588   461   177    1
   589   461   254    1
   590   477   289    1
   591   477   225    1
   592   475   213    1
   593   475   293    1
   594   473   170    1
   595   473   257    1
   596   471   174    1
   597   471   254    1
   598   468   176    1
   599   468   252    1
   600   466   171    1
   601   466   251    1
   602   464   167    1
   603   464   255    1
   604   462   256    1
   605   462   164    1
   606   478   292    1
   607   478   212    1
   608   459   257    1
   609   459   165    1
   610   451   222    1
   611   451   211    1
   612   448   114    1
   613   448   216    1
   614   446   226    1
   615   446   108    1
   616   444   110    1
   617   444   214    1
   618   443   223    1
   619   443   218    1
   620   440   220    1
   621   440   106    1
   622   439   220    1
   623   439   213    1
   624   479   215    1
   625   479   295    1
   626   481   283    1
   627   481   219    1
   628   483   288    1
   629   483   224    1
   630   484   286    1
   631   484   222    1
   632   485   218    1
   633   485   298    1
   634   488   253    1
   635   488   298    1
   636   489   286    1
   637   489   258    1
   638   490   291    1
   639   490   251    1
   640   491   252    1
   641   491   296    1
   642   494   287    1
   643   494   255    1
   644   495   284    1
   645   495   256    1
   646   500   253    1
   647   500   293    1
   648   501   289    1
   649   501   258    1
   650   504   285    1
   651   504   329    1
   652   505   283    1
   653   505   294    1
   654   347    37    1
   655   347     9    1
   656   343    35    1
   657   343    11    1
   658   696   104    1
   659   702   111    1
   660   681   103    1
   661   345   132    1
   662   345    42    1
   663   342    33    1
   664   342    12    1
   665   690   105    1
   666   717   112    1
   667   661   114    1
   668   341    41    1
   669   341    10    1
   670   655    77    1
   671   350   136    1
   672   350    34    1
   673   711   113    1
   674   352   137    1
   675   352    36    1
   676   669    76    1
   677   135   372    1
   678   135   377    1
   679   284   522    1
   680   284   487    1
   681   283   482    1
   682   283   502    1
   683   217   416    1
   684   217   430    1
   685   133   368    1
   686   133   455    1
   687   134   344    1
   688   134   363    1
   689   138   363    1
   690   138   456    1
   691   136   360    1
   692   136   376    1
   693   137   348    1
   694   137   368    1
   695   177   390    1
   696   177   469    1
   697   166   423    1
   698   166   367    1
   699   132   365    1
   700   132   376    1
   701   285   518    1
   702   285   503    1
   703   286   467    1
   704   286   511    1
   705   131   372    1
   706   131   374    1
   707   114   721    1
   708   114   393    1
   709   287   498    1
   710   287   506    1
   711   288   524    1
   712   288   476    1
   713   289   469    1
   714   289   514    1
   715   113   657    1
   716   113   449    1
   717   112   709    1
   718   112   433    1
   719   290   521    1
   720   290   515    1
   721   216   433    1
   722   216   447    1
   723   178   421    1
   724   178   362    1
   725   291   498    1
   726   291   502    1
   727   292   522    1
   728   292   474    1
   729   170   421    1
   730   170   465    1
   731   221   402    1
   732   221   438    1
   733   222   482    1
   734   222   453    1
   735   223   429    1
   736   223   442    1
   737   220   425    1
   738   220   445    1
   739   175   404    1
   740   175   410    1
   741   224   447    1
   742   224   460    1
   743   225   476    1
   744   225   430    1
   745   226   389    1
   746   226   452    1
   747   174   423    1
   748   174   467    1
   749   173   398    1
   750   173   371    1
   751   172   409    1
   752   172   385    1
   753   176   413    1
   754   176   454    1
   755   219   470    1
   756   219   450    1
   757   171   418    1
   758   171   457    1
   759   251   470    1
   760   251   486    1
   761   163   406    1
   762   163   418    1
   763   252   499    1
   764   252   460    1
   765   169   390    1
   766   169   380    1
   767   168   393    1
   768   168   413    1
   769   253   492    1
   770   253   496    1
   771   218   480    1
   772   218   452    1
   773   254   493    1
   774   254   456    1
   775   167   404    1
   776   167   457    1
   777   255   472    1
   778   255   486    1
   779   294   519    1
   780   294   511    1
   781   256   499    1
   782   256   458    1
   783   257   496    1
   784   257   455    1
   785   165   398    1
   786   165   463    1
   787   258   493    1
   788   258   497    1
   789   164   409    1
   790   164   454    1
   791    42   611    1
   792    42   340    1
   793    31   612    1
   794    31   353    1
   795   323   526    1
   796   323   519    1
   797   324   534    1
   798   324   507    1
   799   325   527    1
   800   325   533    1
   801    71   392    1
   802    71   377    1
   803    70   644    1
   804    70   360    1
   805   326   531    1
   806   326   497    1
   807    69   582    1
   808    69   403    1
   809    68   632    1
   810    68   402    1
   811   327   526    1
   812   327   515    1
   813   328   534    1
   814   328   503    1
   815   329   533    1
   816   329   492    1
   817    67   666    1
   818    67   384    1
   819    72   389    1
   820    72   417    1
   821   330   527    1
   822   330   531    1
   823   213   474    1
   824   213   438    1
   825    41   552    1
   826    41   346    1
   827    40   599    1
   828    40   380    1
   829    39   614    1
   830    39   355    1
   831    38   349    1
   832    38   367    1
   833    37   351    1
   834    37   353    1
   835    36   362    1
   836    36   346    1
   837    35   355    1
   838    35   351    1
   839    34   590    1
   840    34   340    1
   841    32   578    1
   842    32   371    1
   843   212   445    1
   844   212   458    1
   845    33   545    1
   846    33   349    1
   847   105   636    1
   848   105   441    1
   849   293   518    1
   850   293   463    1
   851   111   713    1
   852   111   432    1
   853   215   472    1
   854   215   442    1
   855     9   563    1
   856     9   339    1
   857   110   437    1
   858   110   441    1
   859   295   480    1
   860   295   506    1
   861   296   524    1
   862   296   487    1
   863   109   406    1
   864   109   424    1
   865   108   429    1
   866   108   449    1
   867   107   410    1
   868   107   432    1
   869   297   507    1
   870   297   514    1
   871   298   521    1
   872   298   465    1
   873   106   385    1
   874   106   700    1
   875   104   425    1
   876   104   688    1
   877   103   424    1
   878   103   692    1
   879    78   665    1
   880    78   365    1
   881    77   603    1
   882    77   417    1
   883   214   397    1
   884   214   453    1
   885    76   416    1
   886    76   653    1
   887    10   555    1
   888    10   348    1
   889    11   565    1
   890    11   339    1
   891    75   392    1
   892    75   668    1
   893    74   397    1
   894    74   403    1
   895    73   374    1
   896    73   384    1
   897    12   548    1
   898    12   344    1
   899   211   437    1
   900   211   450    1
   901   482   274    1
   902   482   228    1
   903   526   316    1
   904   526   332    1
   905   524   278    1
   906   524   310    1
   907   721   102    1
   908   522   270    1
   909   522   302    1
   910   518   272    1
   911   518   304    1
   912   521   282    1
   913   521   314    1
   914   515   308    1
   915   515   320    1
   916   519   300    1
   917   519   322    1
   918   562     8    1
   919   611    30    1
   920   612    52    1
   921   614    60    1
   922   603    28    1
   923   599    26    1
   924   590    22    1
   925   582    20    1
   926   578    18    1
   927   632    54    1
   928   565    24    1
   929   563    16    1
   930   527   318    1
   931   527   332    1
   932   636    56    1
   933   555     6    1
   934   552     6    1
   935   548     4    1
   936   644    58    1
   937   545     4    1
   938   539     2    1
   939   534   318    1
   940   534   334    1
   941   533   320    1
   942   533   336    1
   943   531   322    1
   944   531   338    1
   945   666    88    1
   946   390   192    1
   947   390   160    1
   948   392    84    1
   949   392    60    1
   950   393   238    1
   951   393    66    1
   952   397   118    1
   953   397   154    1
   954   398   184    1
   955   398   152    1
   956   657    64    1
   957   402   184    1
   958   402    90    1
   959   403    82    1
   960   403    56    1
   961   404   188    1
   962   404   156    1
   963   665    66    1
   964   406    80    1
   965   406   196    1
   966   389   162    1
   967   389   122    1
   968   409   182    1
   969   409   150    1
   970   410    84    1
   971   410   204    1
   972   668    96    1
   973   413   190    1
   974   413   158    1
   975   416    98    1
   976   416   192    1
   977   417    86    1
   978   417    64    1
   979   418   180    1
   980   418   148    1
   981   421   162    1
   982   421   194    1
   983   423   186    1
   984   423   154    1
   985   424   116    1
   986   424    88    1
   987   425    94    1
   988   425   232    1
   989   344    26    1
   990   344    46    1
   991   355    48    1
   992   355    24    1
   993   351    14    1
   994   351   124    1
   995   349    46    1
   996   349    20    1
   997   360   182    1
   998   360    22    1
   999   348    50    1
  1000   348    18    1
  1001   362    86    1
  1002   362   128    1
  1003   363   146    1
  1004   363   130    1
  1005   365   190    1
  1006   365    30    1
  1007   346    50    1
  1008   346    28    1
  1009   367    82    1
  1010   367   130    1
  1011   368   144    1
  1012   368   128    1
  1013   429   120    1
  1014   429   210    1
  1015   371    54    1
  1016   371   144    1
  1017   372   140    1
  1018   372   124    1
  1019   374    44    1
  1020   374   148    1
  1021   376   142    1
  1022   376   126    1
  1023   377    48    1
  1024   377   156    1
  1025   340     8    1
  1026   340   142    1
  1027   380    62    1
  1028   380   146    1
  1029   339     2    1
  1030   339    14    1
  1031   653    62    1
  1032   384    80    1
  1033   384    52    1
  1034   385   230    1
  1035   385    58    1
  1036   492   272    1
  1037   492   314    1
  1038   469   266    1
  1039   469   208    1
  1040   470   268    1
  1041   470   180    1
  1042   472   276    1
  1043   472   188    1
  1044   474   198    1
  1045   474   304    1
  1046   692    92    1
  1047   476   206    1
  1048   476   312    1
  1049   700    94    1
  1050   480   236    1
  1051   480   282    1
  1052   709    98    1
  1053   353    44    1
  1054   353    16    1
  1055   486   244    1
  1056   486   260    1
  1057   487   246    1
  1058   487   334    1
  1059   467   250    1
  1060   467   234    1
  1061   493   266    1
  1062   493   250    1
  1063   496   248    1
  1064   496   264    1
  1065   497   280    1
  1066   497   306    1
  1067   498   260    1
  1068   498   316    1
  1069   499   246    1
  1070   499   262    1
  1071   502   268    1
  1072   502   300    1
  1073   503   270    1
  1074   503   336    1
  1075   506   276    1
  1076   506   308    1
  1077   507   278    1
  1078   507   338    1
  1079   511   274    1
  1080   511   306    1
  1081   713   100    1
  1082   465   242    1
  1083   465   248    1
  1084   430   240    1
  1085   430   208    1
  1086   432    96    1
  1087   432   120    1
  1088   433   240    1
  1089   433   102    1
  1090   437   116    1
  1091   437   202    1
  1092   438   200    1
  1093   438   232    1
  1094   441   118    1
  1095   441    92    1
  1096   442   236    1
  1097   442   204    1
  1098   445   198    1
  1099   445   230    1
  1100   447   238    1
  1101   447   206    1
  1102   688    90    1
  1103   449   100    1
  1104   449   122    1
  1105   450   196    1
  1106   450   228    1
  1107   452   242    1
  1108   452   210    1
  1109   453   202    1
  1110   453   234    1
  1111   454   262    1
  1112   454   126    1
  1113   455   194    1
  1114   455   152    1
  1115   456   186    1
  1116   456   160    1
  1117   457   244    1
  1118   457   140    1
  1119   458   150    1
  1120   458   302    1
  1121   460   158    1
  1122   460   310    1
  1123   463   264    1
  1124   463   200    1
  1125   514   280    1
  1126   514   312    1
  1127     2   541    1
  1128     2   540    1
  1129   266   815    1
  1130   266   761    1
  1131   238   757    1
  1132   238   720    1
  1133   240   787    1
  1134   240   708    1
  1135   242   801    1
  1136   242   763    1
  1137   116   723    1
  1138   116   694    1
  1139    86   604    1
  1140    86   679    1
  1141   244   770    1
  1142   244   766    1
  1143   246   806    1
  1144   246   805    1
  1145   248   773    1
  1146   248   808    1
  1147   162   763    1
  1148   162   679    1
  1149    84   676    1
  1150    84   677    1
  1151   250   768    1
  1152   250   810    1
  1153   260   813    1
  1154   260   812    1
  1155   262   747    1
  1156   262   758    1
  1157   264   814    1
  1158   264   751    1
  1159   236   799    1
  1160   236   793    1
  1161   118   638    1
  1162   118   725    1
  1163    82   584    1
  1164    82   674    1
  1165   268   812    1
  1166   268   795    1
  1167   270   819    1
  1168   270   820    1
  1169   272   823    1
  1170   272   814    1
  1171   274   825    1
  1172   274   797    1
  1173   276   813    1
  1174   276   799    1
  1175    80   671    1
  1176    80   672    1
  1177   278   829    1
  1178   278   830    1
  1179    66   663    1
  1180    66   664    1
  1181    64   658    1
  1182    64   659    1
  1183   280   833    1
  1184   280   815    1
  1185   282   835    1
  1186   282   801    1
  1187    62   651    1
  1188    62   652    1
  1189   200   781    1
  1190   200   767    1
  1191   184   767    1
  1192   184   630    1
  1193   186   768    1
  1194   186   738    1
  1195   188   770    1
  1196   188   771    1
  1197   100   714    1
  1198   100   715    1
  1199   190   664    1
  1200   190   733    1
  1201    98   707    1
  1202    98   708    1
  1203   192   772    1
  1204   192   652    1
  1205    96   677    1
  1206    96   704    1
  1207   194   773    1
  1208   194   736    1
  1209   102   719    1
  1210   102   720    1
  1211   196   723    1
  1212   196   765    1
  1213   198   778    1
  1214   198   777    1
  1215   182   642    1
  1216   182   734    1
  1217    94   698    1
  1218    94   699    1
  1219   120   727    1
  1220   120   714    1
  1221   202   783    1
  1222   202   725    1
  1223   204   771    1
  1224   204   727    1
  1225    92   694    1
  1226    92   693    1
  1227   206   788    1
  1228   206   787    1
  1229   208   772    1
  1230   208   791    1
  1231   210   793    1
  1232   210   729    1
  1233   228   783    1
  1234   228   795    1
  1235   230   748    1
  1236   230   698    1
  1237    90   686    1
  1238    90   687    1
  1239   180   765    1
  1240   180   766    1
  1241   232   778    1
  1242   232   686    1
  1243   234   797    1
  1244   234   753    1
  1245    88   671    1
  1246    88   683    1
  1247    26   598    1
  1248    26   597    1
  1249    54   630    1
  1250    54   631    1
  1251    52   617    1
  1252    52   627    1
  1253   152   742    1
  1254   152   751    1
  1255     6   554    1
  1256     6   553    1
  1257    50   553    1
  1258    50   623    1
  1259    48   622    1
  1260    48   621    1
  1261   150   747    1
  1262   150   748    1
  1263    46   547    1
  1264    46   619    1
  1265    44   617    1
  1266    44   618    1
  1267    30   610    1
  1268    30   609    1
  1269    28   605    1
  1270    28   604    1
  1271   148   740    1
  1272   148   672    1
  1273   146   598    1
  1274   146   743    1
  1275    56   637    1
  1276    56   638    1
  1277    24   569    1
  1278    24   594    1
  1279   130   619    1
  1280   130   738    1
  1281   144   576    1
  1282   144   742    1
  1283    22   589    1
  1284    22   588    1
  1285     8   561    1
  1286     8   560    1
  1287    20   584    1
  1288    20   583    1
  1289    14   569    1
  1290    14   568    1
  1291   142   610    1
  1292   142   588    1
  1293    18   576    1
  1294    18   577    1
  1295   140   740    1
  1296   140   741    1
  1297   126   733    1
  1298   126   734    1
  1299    16   573    1
  1300    16   568    1
  1301   158   757    1
  1302   158   758    1
  1303   302   777    1
  1304   302   806    1
  1305   300   837    1
  1306   300   825    1
  1307   304   781    1
  1308   304   820    1
  1309     4   547    1
  1310     4   546    1
  1311   306   838    1
  1312   306   810    1
  1313   308   835    1
  1314   308   840    1
  1315   310   805    1
  1316   310   788    1
  1317   160   743    1
  1318   160   761    1
  1319    60   648    1
  1320    60   622    1
  1321   312   829    1
  1322   312   791    1
  1323   314   841    1
  1324   314   808    1
  1325   316   837    1
  1326   316   840    1
  1327   128   623    1
  1328   128   736    1
  1329    58   643    1
  1330    58   642    1
  1331   318   845    1
  1332   318   846    1
  1333   320   841    1
  1334   320   848    1
  1335   322   850    1
  1336   322   838    1
  1337   332   850    1
  1338   332   848    1
  1339   334   819    1
  1340   334   830    1
  1341   156   741    1
  1342   156   676    1
  1343   122   658    1
  1344   122   729    1
  1345   336   823    1
  1346   336   846    1
  1347   338   833    1
  1348   338   845    1
  1349   124   618    1
  1350   124   621    1
  1351   154   753    1
  1352   154   674    1
