@<TRIPOS>MOLECULE
ZnS_cell2.pdb
 8 8 0 0 0
SMALL
GASTEIGER

@<TRIPOS>ATOM
      1 ZN          0.0000    0.0000    0.0000 Zn      1  UNL1        0.0000
      2 ZN          1.9050    1.1000    3.1100 Zn      1  UNL1        0.0000
      3 ZN          1.9050    3.2990    0.0000 Zn      1  UNL1        0.0000
      4 ZN          3.8090    4.3990    3.1100 Zn      1  UNL1        0.0000
      5  S          1.9050    1.1000    0.7780 S.3     1  UNL1        0.0000
      6  S          3.8090    2.1990    3.8880 S.3     1  UNL1        0.0000
      7  S          3.8090    4.3990    0.7780 S.3     1  UNL1        0.0000
      8  S          5.7140    5.4980    3.8880 S.3     1  UNL1        0.0000
@<TRIPOS>BOND
     1     1     5    1
     2     2     5    1
     3     2     6    1
     4     3     5    1
     5     3     7    1
     6     4     7    1
     7     4     6    1
     8     4     8    1
