@<TRIPOS>MOLECULE
ZnS_cell.pdb
 4 3 0 0 0
SMALL
GASTEIGER

@<TRIPOS>ATOM
      1 Zn          0.0000    0.0000    0.0000 Zn      1  UNL1        0.0000
      2 Zn          1.9050    1.1000    3.1100 Zn      1  UNL1        0.0000
      3  S          1.9050    1.1000    0.7780 S.3     1  UNL1        0.0000
      4  S          3.8090    2.1990    3.8880 S.3     1  UNL1        0.0000
@<TRIPOS>BOND
     1     1     3    1F
     2     2     3    1F
     3     2     4    1F
