@<TRIPOS>MOLECULE
xlinker.****
58 62 1 0 0 
SMALL
USER_CHARGES


@<TRIPOS>ATOM
  1 C        0.5853     0.3465    -0.8083 C.ar  1 <1>   0.0862 
  2 C        1.4737     0.6388     0.3179 C.2   1 <1>   0.3976 
  3 O1       1.0325     1.2763     1.2657 O.2   1 <1>  -0.5700 
  4 C       -0.3780     1.2864    -1.2026 C.ar  1 <1>  -0.1500 
  5 H       -0.4577     2.2026    -0.6736 H     1 <1>   0.1500 
  6 C       -1.2260     1.0281    -2.2734 C.ar  1 <1>  -0.1500 
  7 H       -1.9494     1.7480    -2.5641 H     1 <1>   0.1500 
  8 C       -1.1292    -0.1775    -2.9614 C.ar  1 <1>  -0.1500 
  9 H       -1.7768    -0.3746    -3.7777 H     1 <1>   0.1500 
 10 C       -0.1874    -1.1271    -2.5751 C.ar  1 <1>  -0.1500 
 11 H       -0.1262    -2.0490    -3.0969 H     1 <1>   0.1500 
 12 C        0.6630    -0.8702    -1.5049 C.ar  1 <1>  -0.1500 
 13 H        1.3699    -1.6040    -1.2094 H     1 <1>   0.1500 
 14 C        5.5492    -0.5884     0.4438 C.ar  1 <1>   0.0825 
 15 O        6.8701    -0.9775     0.4580 O.3   1 <1>  -0.1650 
 16 C        4.9524    -0.3349    -0.7899 C.ar  1 <1>  -0.1500 
 17 H        5.5188    -0.4393    -1.6798 H     1 <1>   0.1500 
 18 C        3.6209     0.0647    -0.8382 C.ar  1 <1>  -0.1500 
 19 H        3.1730     0.2775    -1.7764 H     1 <1>   0.1500 
 20 C        2.8700     0.2026     0.3447 C.ar  1 <1>   0.0862 
 21 C        3.4929    -0.0691     1.5750 C.ar  1 <1>  -0.1500 
 22 H        2.9357     0.0337     2.4726 H     1 <1>   0.1500 
 23 C        4.8233    -0.4667     1.6293 C.ar  1 <1>  -0.1500 
 24 H        5.2805    -0.6793     2.5619 H     1 <1>   0.1500 
 25 C        9.6308    -0.0685     3.4070 C.ar  1 <1>   0.0825 
 26 O       10.5515     0.1875     4.4062 O.3   1 <1>  -0.1650 
 27 C        9.5691    -1.3631     2.8917 C.ar  1 <1>  -0.1500 
 28 H       10.2399    -2.1010     3.2526 H     1 <1>   0.1500 
 29 C        8.6286    -1.6610     1.9075 C.ar  1 <1>  -0.1500 
 30 H        8.5494    -2.6368     1.4998 H     1 <1>   0.1500 
 31 C        7.7725    -0.6572     1.4557 C.ar  1 <1>   0.0825 
 32 C        7.8344     0.6412     1.9699 C.ar  1 <1>  -0.1500 
 33 H        7.1717     1.3864     1.6073 H     1 <1>   0.1500 
 34 C        8.7736     0.9386     2.9551 C.ar  1 <1>  -0.1500 
 35 H        8.8421     1.9152     3.3645 H     1 <1>   0.1500 
 36 C       13.0012     3.5549     4.6624 C.ar  1 <1>   0.0862 
 37 C       13.8511     4.7430     4.7419 C.2   1 <1>   0.3976 
 38 O3      13.8035     5.5674     3.8377 O.2   1 <1>  -0.5700 
 39 C       12.6618     3.0211     3.4071 C.ar  1 <1>  -0.1500 
 40 H       13.0352     3.4846     2.5283 H     1 <1>   0.1500 
 41 C       11.8471     1.8998     3.3047 C.ar  1 <1>  -0.1500 
 42 H       11.6061     1.4982     2.3535 H     1 <1>   0.1500 
 43 C       11.3556     1.3038     4.4668 C.ar  1 <1>   0.0825 
 44 C       11.6809     1.8106     5.7237 C.ar  1 <1>  -0.1500 
 45 H       11.3007     1.3415     6.5947 H     1 <1>   0.1500 
 46 C       12.4942     2.9349     5.8201 C.ar  1 <1>  -0.1500 
 47 H       12.7251     3.3323     6.7767 H     1 <1>   0.1500 
 48 C       16.4663     5.4873     8.0299 C.ar  1 <1>  -0.1500 
 49 H       17.1129     5.6777     8.8486 H     1 <1>   0.1500 
 50 C       16.2622     4.1814     7.5929 C.ar  1 <1>  -0.1500 
 51 H       16.7610     3.3809     8.0792 H     1 <1>   0.1500 
 52 C       15.4147     3.9299     6.5191 C.ar  1 <1>  -0.1500 
 53 H       15.2751     2.9326     6.1850 H     1 <1>   0.1500 
 54 C       14.7529     4.9851     5.8702 C.ar  1 <1>   0.0862 
 55 C       14.9804     6.2956     6.3154 C.ar  1 <1>  -0.1500 
 56 H       14.4992     7.1030     5.8231 H     1 <1>   0.1500 
 57 C       15.8277     6.5447     7.3890 C.ar  1 <1>  -0.1500 
 58 H       15.9901     7.5405     7.7182 H     1 <1>   0.1500 
@<TRIPOS>BOND
  1   1   2  1   
  2   1   4  ar  
  3   1  12  ar  
  4   2   3  2   
  5   2  20  1   
  6   4   5  1   
  7   4   6  ar  
  8   6   7  1   
  9   6   8  ar  
 10   8   9  1   
 11   8  10  ar  
 12  10  11  1   
 13  10  12  ar  
 14  12  13  1   
 15  14  15  1   
 16  14  16  ar  
 17  14  23  ar  
 18  15  31  1   
 19  16  17  1   
 20  16  18  ar  
 21  18  19  1   
 22  18  20  ar  
 23  20  21  ar  
 24  21  22  1   
 25  21  23  ar  
 26  23  24  1   
 27  25  26  1   
 28  25  27  ar  
 29  25  34  ar  
 30  26  43  1   
 31  27  28  1   
 32  27  29  ar  
 33  29  30  1   
 34  29  31  ar  
 35  31  32  ar  
 36  32  33  1   
 37  32  34  ar  
 38  34  35  1   
 39  36  37  1   
 40  36  39  ar  
 41  36  46  ar  
 42  37  38  2   
 43  37  54  1   
 44  39  40  1   
 45  39  41  ar  
 46  41  42  1   
 47  41  43  ar  
 48  43  44  ar  
 49  44  45  1   
 50  44  46  ar  
 51  46  47  1   
 52  48  49  1   
 53  48  50  ar  
 54  48  57  ar  
 55  50  51  1   
 56  50  52  ar  
 57  52  53  1   
 58  52  54  ar  
 59  54  55  ar  
 60  55  56  1   
 61  55  57  ar  
 62  57  58  1   
@<TRIPOS>SUBSTRUCTURE
  1 ****  34 GROUP 4 **** **** 0

# MOE 2020.09 (io_trps.svl 2020.11)
@<TRIPOS>MOLECULE
oleic
54 53 1 0 0 
SMALL
NO_CHARGES


@<TRIPOS>ATOM
  1 C       28.5897    14.5826     7.7049 C.2   1 <1>   0.0000 
  2 C1      27.3007    14.0778     7.3536 C.3   1 <1>   0.0000 
  3 H11     26.8119    14.7729     6.6710 H     1 <1>   0.0000 
  4 H12     26.6962    13.9669     8.2539 H     1 <1>   0.0000 
  5 C13     27.4443    12.8073     6.7173 C.3   1 <1>   0.0000 
  6 H131    28.0488    12.9181     5.8170 H     1 <1>   0.0000 
  7 C132    26.1553    12.3024     6.3660 C.3   1 <1>   0.0000 
  8 H131    25.6665    12.9976     5.6834 H     1 <1>   0.0000 
  9 H132    25.5508    12.1916     7.2663 H     1 <1>   0.0000 
 10 C133    26.2989    11.0320     5.7297 C.3   1 <1>   0.0000 
 11 C131    25.0099    10.5272     5.3784 C.3   1 <1>   0.0000 
 12 H131    24.4054    10.4164     6.2788 H     1 <1>   0.0000 
 13 C132    25.1534     9.2567     4.7421 C.3   1 <1>   0.0000 
 14 H131    25.6423     8.5615     5.4248 H     1 <1>   0.0000 
 15 H132    25.7580     9.3675     3.8417 H     1 <1>   0.0000 
 16 C133    23.8645     8.7519     4.3909 C.3   1 <1>   0.0000 
 17 H131    23.2600     8.6411     5.2912 H     1 <1>   0.0000 
 18 C132    24.0080     7.4814     3.7545 C.2   1 <1>   0.0000 
 19 H132    24.9462     6.9799     3.5677 H     1 <1>   0.0000 
 20 C133    22.7190     6.9766     3.4033 C.2   1 <1>   0.0000 
 21 H131    22.6298     6.0200     2.9097 H     1 <1>   0.0000 
 22 C132    21.5481     7.7366     3.7047 C.3   1 <1>   0.0000 
 23 C131    20.3919     7.0267     3.2587 C.3   1 <1>   0.0000 
 24 H131    20.4555     6.8686     2.1820 H     1 <1>   0.0000 
 25 C132    19.2209     7.7867     3.5601 C.3   1 <1>   0.0000 
 26 H131    19.2731     8.7506     3.0538 H     1 <1>   0.0000 
 27 H132    19.1574     7.9447     4.6368 H     1 <1>   0.0000 
 28 C133    18.0648     7.0767     3.1141 C.3   1 <1>   0.0000 
 29 H131    18.1283     6.9187     2.0374 H     1 <1>   0.0000 
 30 C132    16.8938     7.8367     3.4155 C.3   1 <1>   0.0000 
 31 H131    16.9460     8.8007     2.9092 H     1 <1>   0.0000 
 32 H132    16.8303     7.9947     4.4922 H     1 <1>   0.0000 
 33 C133    15.7377     7.1267     2.9695 C.3   1 <1>   0.0000 
 34 H131    15.8012     6.9687     1.8928 H     1 <1>   0.0000 
 35 C132    14.5667     7.8867     3.2709 C.3   1 <1>   0.0000 
 36 H131    14.6189     8.8507     2.7646 H     1 <1>   0.0000 
 37 H132    14.5032     8.0447     4.3476 H     1 <1>   0.0000 
 38 C133    13.4105     7.1768     2.8249 C.3   1 <1>   0.0000 
 39 H131    13.4741     7.0187     1.7482 H     1 <1>   0.0000 
 40 H132    12.5167     7.7569     3.0550 H     1 <1>   0.0000 
 41 H133    13.3584     6.2128     3.3312 H     1 <1>   0.0000 
 42 H133    15.6855     6.1627     3.4758 H     1 <1>   0.0000 
 43 H133    18.0126     6.1127     3.6204 H     1 <1>   0.0000 
 44 H133    20.3398     6.0627     3.7650 H     1 <1>   0.0000 
 45 H132    21.6003     8.7006     3.1984 H     1 <1>   0.0000 
 46 H133    21.4846     7.8947     4.7814 H     1 <1>   0.0000 
 47 H133    23.3756     9.4471     3.7082 H     1 <1>   0.0000 
 48 H133    24.5211    11.2223     4.6958 H     1 <1>   0.0000 
 49 H132    26.7878    10.3368     6.4123 H     1 <1>   0.0000 
 50 H133    26.9034    11.1427     4.8293 H     1 <1>   0.0000 
 51 H133    27.9331    12.1121     7.3999 H     1 <1>   0.0000 
 52 O2      28.4461    15.8531     8.3412 O.2   1 <1>   0.0000 
 53 O3      29.3817    14.7277     6.5254 O.3   1 <1>   0.0000 
 54 H3      28.9279    15.3434     5.9450 H     1 <1>   0.0000 
@<TRIPOS>BOND
  1   1   2  1   
  2   1  52  2   
  3   1  53  1   
  4   2   3  1   
  5   2   4  1   
  6   2   5  1   
  7   5   6  1   
  8   5   7  1   
  9   5  51  1   
 10   7   8  1   
 11   7   9  1   
 12   7  10  1   
 13  10  11  1   
 14  10  49  1   
 15  10  50  1   
 16  11  12  1   
 17  11  13  1   
 18  11  48  1   
 19  13  14  1   
 20  13  15  1   
 21  13  16  1   
 22  16  17  1   
 23  16  18  1   
 24  16  47  1   
 25  18  19  1   
 26  18  20  2   
 27  20  21  1   
 28  20  22  1   
 29  22  23  1   
 30  22  45  1   
 31  22  46  1   
 32  23  24  1   
 33  23  25  1   
 34  23  44  1   
 35  25  26  1   
 36  25  27  1   
 37  25  28  1   
 38  28  29  1   
 39  28  30  1   
 40  28  43  1   
 41  30  31  1   
 42  30  32  1   
 43  30  33  1   
 44  33  34  1   
 45  33  35  1   
 46  33  42  1   
 47  35  36  1   
 48  35  37  1   
 49  35  38  1   
 50  38  39  1   
 51  38  40  1   
 52  38  41  1   
 53  53  54  1   
@<TRIPOS>SUBSTRUCTURE
  1 ****  16 GROUP 4 **** **** 0

# MOE 2020.09 (io_trps.svl 2020.11)
@<TRIPOS>MOLECULE
oleic
54 53 1 0 0 
SMALL
NO_CHARGES


@<TRIPOS>ATOM
  1 C      -17.0064     3.0534     3.3037 C.2   1 <1>   0.0000 
  2 C1     -15.5784     3.0534     3.3037 C.3   1 <1>   0.0000 
  3 H11    -15.2151     2.7874     4.2963 H     1 <1>   0.0000 
  4 H12    -15.2151     4.0460     3.0377 H     1 <1>   0.0000 
  5 C13    -15.1024     2.1014     2.3517 C.3   1 <1>   0.0000 
  6 H131   -15.4658     1.1087     2.6177 H     1 <1>   0.0000 
  7 C132   -13.6744     2.1014     2.3517 C.3   1 <1>   0.0000 
  8 H131   -13.3111     1.8354     3.3443 H     1 <1>   0.0000 
  9 H132   -13.3111     3.0940     2.0857 H     1 <1>   0.0000 
 10 C133   -13.1984     1.1494     1.3997 C.3   1 <1>   0.0000 
 11 C131   -11.7704     1.1494     1.3997 C.3   1 <1>   0.0000 
 12 H131   -11.4071     2.1421     1.1338 H     1 <1>   0.0000 
 13 C132   -11.2943     0.1974     0.4477 C.3   1 <1>   0.0000 
 14 H131   -11.6577     0.4634    -0.5449 H     1 <1>   0.0000 
 15 H132   -11.6576    -0.7952     0.7137 H     1 <1>   0.0000 
 16 C133    -9.8663     0.1975     0.4478 C.3   1 <1>   0.0000 
 17 H131    -9.5030     1.1901     0.1818 H     1 <1>   0.0000 
 18 C132    -9.3903    -0.7545    -0.5042 C.2   1 <1>   0.0000 
 19 H132   -10.0138    -1.3781    -1.1278 H     1 <1>   0.0000 
 20 C133    -7.9623    -0.7545    -0.5042 C.2   1 <1>   0.0000 
 21 H131    -7.4223    -1.4158    -1.1655 H     1 <1>   0.0000 
 22 C132    -7.2483     0.1200     0.3703 C.3   1 <1>   0.0000 
 23 C131    -5.8444    -0.0645     0.1858 C.3   1 <1>   0.0000 
 24 H131    -5.5811    -1.0980     0.4110 H     1 <1>   0.0000 
 25 C132    -5.1304     0.8100     1.0603 C.3   1 <1>   0.0000 
 26 H131    -5.3937     0.5848     2.0937 H     1 <1>   0.0000 
 27 H132    -5.3937     1.8434     0.8351 H     1 <1>   0.0000 
 28 C133    -3.7264     0.6255     0.8758 C.3   1 <1>   0.0000 
 29 H131    -3.4631    -0.4080     1.1009 H     1 <1>   0.0000 
 30 C132    -3.0124     1.4999     1.7502 C.3   1 <1>   0.0000 
 31 H131    -3.2757     1.2748     2.7837 H     1 <1>   0.0000 
 32 H132    -3.2757     2.5334     1.5251 H     1 <1>   0.0000 
 33 C133    -1.6084     1.3154     1.5657 C.3   1 <1>   0.0000 
 34 H131    -1.3451     0.2819     1.7909 H     1 <1>   0.0000 
 35 C132    -0.8944     2.1899     2.4402 C.3   1 <1>   0.0000 
 36 H131    -1.1578     1.9647     3.4737 H     1 <1>   0.0000 
 37 H132    -1.1577     3.2234     2.2151 H     1 <1>   0.0000 
 38 C133     0.5095     2.0054     2.2557 C.3   1 <1>   0.0000 
 39 H131     0.7728     0.9719     2.4809 H     1 <1>   0.0000 
 40 H132     1.0545     2.6729     2.9232 H     1 <1>   0.0000 
 41 H133     0.7729     2.2306     1.2222 H     1 <1>   0.0000 
 42 H133    -1.3451     1.5406     0.5323 H     1 <1>   0.0000 
 43 H133    -3.4631     0.8506    -0.1577 H     1 <1>   0.0000 
 44 H133    -5.5810     0.1606    -0.8477 H     1 <1>   0.0000 
 45 H132    -7.5117    -0.1052     1.4038 H     1 <1>   0.0000 
 46 H133    -7.5117     1.1535     0.1452 H     1 <1>   0.0000 
 47 H133    -9.5030    -0.0685     1.4404 H     1 <1>   0.0000 
 48 H133   -11.4071     0.8834     2.3924 H     1 <1>   0.0000 
 49 H132   -13.5617     1.4153     0.4070 H     1 <1>   0.0000 
 50 H133   -13.5617     0.1567     1.6657 H     1 <1>   0.0000 
 51 H133   -15.4657     2.3673     1.3590 H     1 <1>   0.0000 
 52 O2     -17.4824     4.0054     4.2557 O.2   1 <1>   0.0000 
 53 O3     -17.4824     1.7529     3.6521 O.3   1 <1>   0.0000 
 54 H3     -17.1478     1.5463     4.5279 H     1 <1>   0.0000 
@<TRIPOS>BOND
  1   1   2  1   
  2   1  52  2   
  3   1  53  1   
  4   2   3  1   
  5   2   4  1   
  6   2   5  1   
  7   5   6  1   
  8   5   7  1   
  9   5  51  1   
 10   7   8  1   
 11   7   9  1   
 12   7  10  1   
 13  10  11  1   
 14  10  49  1   
 15  10  50  1   
 16  11  12  1   
 17  11  13  1   
 18  11  48  1   
 19  13  14  1   
 20  13  15  1   
 21  13  16  1   
 22  16  17  1   
 23  16  18  1   
 24  16  47  1   
 25  18  19  1   
 26  18  20  2   
 27  20  21  1   
 28  20  22  1   
 29  22  23  1   
 30  22  45  1   
 31  22  46  1   
 32  23  24  1   
 33  23  25  1   
 34  23  44  1   
 35  25  26  1   
 36  25  27  1   
 37  25  28  1   
 38  28  29  1   
 39  28  30  1   
 40  28  43  1   
 41  30  31  1   
 42  30  32  1   
 43  30  33  1   
 44  33  34  1   
 45  33  35  1   
 46  33  42  1   
 47  35  36  1   
 48  35  37  1   
 49  35  38  1   
 50  38  39  1   
 51  38  40  1   
 52  38  41  1   
 53  53  54  1   
@<TRIPOS>SUBSTRUCTURE
  1 ****  16 GROUP 4 **** **** 0

# MOE 2020.09 (io_trps.svl 2020.11)
