@<TRIPOS>MOLECULE
xlinker
58 62 1 0 0 
SMALL
USER_CHARGES


@<TRIPOS>ATOM
  1 C        2.5993     1.8219     0.4009 C.ar  1 <1>   0.0862 
  2 C        3.1580     0.9745    -0.6655 C.2   1 <1>   0.3976 
  3 O1       2.6901     1.1251    -1.7961 O.2   1 <1>  -0.5700 
  4 C        1.2082     2.0243     0.4522 C.ar  1 <1>  -0.1500 
  5 H        0.5957     1.5498    -0.2740 H     1 <1>   0.1500 
  6 C        0.6356     2.8234     1.4377 C.ar  1 <1>  -0.1500 
  7 H       -0.4185     2.9570     1.4768 H     1 <1>   0.1500 
  8 C        1.4485     3.4639     2.3691 C.ar  1 <1>  -0.1500 
  9 H        1.0014     4.0956     3.0967 H     1 <1>   0.1500 
 10 C        2.8320     3.2944     2.3245 C.ar  1 <1>  -0.1500 
 11 H        3.4542     3.8080     3.0224 H     1 <1>   0.1500 
 12 C        3.4052     2.4719     1.3554 C.ar  1 <1>  -0.1500 
 13 H        4.4615     2.3600     1.3275 H     1 <1>   0.1500 
 14 C        6.2283    -1.9432    -0.1224 C.ar  1 <1>   0.0825 
 15 O        7.3390    -2.7288     0.0949 O.3   1 <1>  -0.1650 
 16 C        5.4734    -1.5233     0.9713 C.ar  1 <1>  -0.1500 
 17 H        5.6817    -1.9122     1.9359 H     1 <1>   0.1500 
 18 C        4.4853    -0.5645     0.7997 C.ar  1 <1>  -0.1500 
 19 H        3.9483    -0.2131     1.6400 H     1 <1>   0.1500 
 20 C        4.1947    -0.0506    -0.4754 C.ar  1 <1>   0.0862 
 21 C        4.9054    -0.5699    -1.5819 C.ar  1 <1>  -0.1500 
 22 H        4.6603    -0.2444    -2.5617 H     1 <1>   0.1500 
 23 C        5.9274    -1.5007    -1.4094 C.ar  1 <1>  -0.1500 
 24 H        6.4781    -1.8571    -2.2459 H     1 <1>   0.1500 
 25 C       10.3195    -0.2403     1.5014 C.ar  1 <1>   0.0825 
 26 O       11.2530     0.7139     1.8891 O.3   1 <1>  -0.1650 
 27 C        9.3488    -0.7074     2.3965 C.ar  1 <1>  -0.1500 
 28 H        9.2780    -0.3323     3.3854 H     1 <1>   0.1500 
 29 C        8.4092    -1.6282     1.9561 C.ar  1 <1>  -0.1500 
 30 H        7.6693    -1.9832     2.6233 H     1 <1>   0.1500 
 31 C        8.4054    -2.0171     0.6132 C.ar  1 <1>   0.0825 
 32 C        9.4009    -1.5989    -0.2670 C.ar  1 <1>  -0.1500 
 33 H        9.3850    -1.9401    -1.2752 H     1 <1>   0.1500 
 34 C       10.3674    -0.7036     0.1835 C.ar  1 <1>  -0.1500 
 35 H       11.1094    -0.3341    -0.4748 H     1 <1>   0.1500 
 36 C       10.0738     3.7970     4.4102 C.ar  1 <1>   0.0862 
 37 C        9.5730     4.8719     5.2596 C.2   1 <1>   0.3976 
 38 O3       8.5561     5.4605     4.8647 O.2   1 <1>  -0.5700 
 39 C       10.0163     3.9381     3.0101 C.ar  1 <1>  -0.1500 
 40 H        9.6383     4.8381     2.5924 H     1 <1>   0.1500 
 41 C       10.4226     2.9132     2.1692 C.ar  1 <1>  -0.1500 
 42 H       10.3646     3.0127     1.1127 H     1 <1>   0.1500 
 43 C       10.8859     1.7290     2.7285 C.ar  1 <1>   0.0825 
 44 C       10.9508     1.5611     4.1101 C.ar  1 <1>  -0.1500 
 45 H       11.3061     0.6544     4.5147 H     1 <1>   0.1500 
 46 C       10.5357     2.5868     4.9481 C.ar  1 <1>  -0.1500 
 47 H       10.5508     2.4443     5.9968 H     1 <1>   0.1500 
 48 C       11.2435     6.2479     8.9546 C.ar  1 <1>  -0.1500 
 49 H       11.6428     6.6276     9.8619 H     1 <1>   0.1500 
 50 C       11.9926     5.3945     8.1501 C.ar  1 <1>  -0.1500 
 51 H       12.9659     5.0950     8.4534 H     1 <1>   0.1500 
 52 C       11.4724     4.9330     6.9427 C.ar  1 <1>  -0.1500 
 53 H       12.0802     4.3109     6.3379 H     1 <1>   0.1500 
 54 C       10.1738     5.2972     6.5349 C.ar  1 <1>   0.0862 
 55 C        9.4341     6.1391     7.3838 C.ar  1 <1>  -0.1500 
 56 H        8.4435     6.4190     7.1248 H     1 <1>   0.1500 
 57 C        9.9645     6.6219     8.5683 C.ar  1 <1>  -0.1500 
 58 H        9.3836     7.2800     9.1755 H     1 <1>   0.1500 
@<TRIPOS>BOND
  1   1   2  1   
  2   1   4  ar  
  3   1  12  ar  
  4   2   3  2   
  5   2  20  1   
  6   4   5  1   
  7   4   6  ar  
  8   6   7  1   
  9   6   8  ar  
 10   8   9  1   
 11   8  10  ar  
 12  10  11  1   
 13  10  12  ar  
 14  12  13  1   
 15  14  15  1   
 16  14  16  ar  
 17  14  23  ar  
 18  15  31  1   
 19  16  17  1   
 20  16  18  ar  
 21  18  19  1   
 22  18  20  ar  
 23  20  21  ar  
 24  21  22  1   
 25  21  23  ar  
 26  23  24  1   
 27  25  26  1   
 28  25  27  ar  
 29  25  34  ar  
 30  26  43  1   
 31  27  28  1   
 32  27  29  ar  
 33  29  30  1   
 34  29  31  ar  
 35  31  32  ar  
 36  32  33  1   
 37  32  34  ar  
 38  34  35  1   
 39  36  37  1   
 40  36  39  ar  
 41  36  46  ar  
 42  37  38  2   
 43  37  54  1   
 44  39  40  1   
 45  39  41  ar  
 46  41  42  1   
 47  41  43  ar  
 48  43  44  ar  
 49  44  45  1   
 50  44  46  ar  
 51  46  47  1   
 52  48  49  1   
 53  48  50  ar  
 54  48  57  ar  
 55  50  51  1   
 56  50  52  ar  
 57  52  53  1   
 58  52  54  ar  
 59  54  55  ar  
 60  55  56  1   
 61  55  57  ar  
 62  57  58  1   
@<TRIPOS>SUBSTRUCTURE
  1 ****  27 GROUP 4 **** **** 0

# MOE 2020.09 (io_trps.svl 2020.11)
@<TRIPOS>MOLECULE
CCL4
1855 1484 371 0 0 
SMALL
USER_CHARGES


@<TRIPOS>ATOM
   1 CL      -5.2150   -12.2739   -18.3430 Cl      1 CCL4  -0.0812 
   2 C       -5.2278   -11.9040   -16.6067 C.3     1 CCL4   0.3246 
   3 CL      -5.8709   -13.2945   -15.7032 Cl      1 CCL4  -0.0812 
   4 CL      -6.2489   -10.4856   -16.2915 Cl      1 CCL4  -0.0812 
   5 CL      -3.5633   -11.5737   -16.0867 Cl      1 CCL4  -0.0812 
   6 CL      -6.7274    18.1841   -12.0709 Cl      2 CCL4  -0.0812 
   7 C       -8.0061    18.6766   -13.2061 C.3     2 CCL4   0.3246 
   8 CL      -8.9534    17.2408   -13.6706 Cl      2 CCL4  -0.0812 
   9 CL      -7.2690    19.4016   -14.6542 Cl      2 CCL4  -0.0812 
  10 CL      -9.0752    19.8683   -12.4258 Cl      2 CCL4  -0.0812 
  11 CL      25.9121   -11.4365   -11.3575 Cl      3 CCL4  -0.0812 
  12 C       26.5309   -12.6923   -12.4594 C.3     3 CCL4   0.3246 
  13 CL      26.4599   -14.2783   -11.6501 Cl      3 CCL4  -0.0812 
  14 CL      28.2131   -12.3159   -12.8908 Cl      3 CCL4  -0.0812 
  15 CL      25.5528   -12.7392   -13.9442 Cl      3 CCL4  -0.0812 
  16 CL      -6.7627   -17.3831     1.0194 Cl      4 CCL4  -0.0812 
  17 C       -8.4410   -17.3305     1.6023 C.3     4 CCL4   0.3246 
  18 CL      -9.5436   -17.1418     0.2163 Cl      4 CCL4  -0.0812 
  19 CL      -8.6261   -15.9652     2.7292 Cl      4 CCL4  -0.0812 
  20 CL      -8.8107   -18.8458     2.4517 Cl      4 CCL4  -0.0812 
  21 CL     -12.5980    -1.1216   -13.1406 Cl      5 CCL4  -0.0812 
  22 C      -12.1260     0.5860   -12.9750 C.3     5 CCL4   0.3246 
  23 CL     -13.5649     1.5708   -12.6011 Cl      5 CCL4  -0.0812 
  24 CL     -11.4075     1.1595   -14.4972 Cl      5 CCL4  -0.0812 
  25 CL     -10.9128     0.7412   -11.6895 Cl      5 CCL4  -0.0812 
  26 CL      -8.2889   -13.2501   -12.9268 Cl      6 CCL4  -0.0812 
  27 C       -8.7550   -14.8711   -13.4967 C.3     6 CCL4   0.3246 
  28 CL      -7.4100   -16.0033   -13.2398 Cl      6 CCL4  -0.0812 
  29 CL      -9.1462   -14.8079   -15.2338 Cl      6 CCL4  -0.0812 
  30 CL     -10.1586   -15.4433   -12.5666 Cl      6 CCL4  -0.0812 
  31 CL      26.9827    19.0264   -12.3034 Cl      7 CCL4  -0.0812 
  32 C       26.2768    20.5787   -11.7874 C.3     7 CCL4   0.3246 
  33 CL      27.4980    21.8552   -11.9696 Cl      7 CCL4  -0.0812 
  34 CL      25.8098    20.4995   -10.0736 Cl      7 CCL4  -0.0812 
  35 CL      24.8529    20.9644   -12.7896 Cl      7 CCL4  -0.0812 
  36 CL       2.4809    -3.2604   -17.4371 Cl      8 CCL4  -0.0812 
  37 C        3.8618    -2.3410   -16.7993 C.3     8 CCL4   0.3246 
  38 CL       3.5434    -1.8982   -15.1052 Cl      8 CCL4  -0.0812 
  39 CL       4.0882    -0.8655   -17.7559 Cl      8 CCL4  -0.0812 
  40 CL       5.3287    -3.3459   -16.8979 Cl      8 CCL4  -0.0812 
  41 CL      -5.6787     2.3572   -16.8632 Cl      9 CCL4  -0.0812 
  42 C       -7.1833     1.4325   -16.6637 C.3     9 CCL4   0.3246 
  43 CL      -6.8633    -0.3103   -16.8295 Cl      9 CCL4  -0.0812 
  44 CL      -8.3653     1.9778   -17.8731 Cl      9 CCL4  -0.0812 
  45 CL      -7.8262     1.7281   -15.0345 Cl      9 CCL4  -0.0812 
  46 CL     -12.9758    -0.6991    22.9521 Cl     10 CCL4  -0.0812 
  47 C      -11.9870    -0.0646    21.6151 C.3    10 CCL4   0.3246 
  48 CL     -11.9049     1.7076    21.7717 Cl     10 CCL4  -0.0812 
  49 CL     -12.7580    -0.5083    20.0737 Cl     10 CCL4  -0.0812 
  50 CL     -10.3625    -0.7786    21.6925 Cl     10 CCL4  -0.0812 
  51 CL     -10.9221   -12.4532     2.3915 Cl     11 CCL4  -0.0812 
  52 C      -11.7125   -12.6423     0.8063 C.3    11 CCL4   0.3246 
  53 CL     -11.1343   -11.3710    -0.3006 Cl     11 CCL4  -0.0812 
  54 CL     -13.4820   -12.5246     0.9848 Cl     11 CCL4  -0.0812 
  55 CL     -11.2981   -14.2292     0.1280 Cl     11 CCL4  -0.0812 
  56 CL      -8.3755   -15.3311    21.0814 Cl     12 CCL4  -0.0812 
  57 C       -7.1975   -16.6411    21.3384 C.3    12 CCL4   0.3246 
  58 CL      -7.8274   -17.7736    22.5580 Cl     12 CCL4  -0.0812 
  59 CL      -5.6611   -15.9578    21.9170 Cl     12 CCL4  -0.0812 
  60 CL      -6.9096   -17.5118    19.8094 Cl     12 CCL4  -0.0812 
  61 CL     -10.0663    -9.2733    21.0606 Cl     13 CCL4  -0.0812 
  62 C      -10.2597   -10.9935    21.4740 C.3    13 CCL4   0.3246 
  63 CL     -10.9945   -11.1191    23.0862 Cl     13 CCL4  -0.0812 
  64 CL      -8.6777   -11.7952    21.4903 Cl     13 CCL4  -0.0812 
  65 CL     -11.3235   -11.7766    20.2842 Cl     13 CCL4  -0.0812 
  66 CL     -10.8920   -18.4884   -15.2748 Cl     14 CCL4  -0.0812 
  67 C      -12.1554   -17.4946   -16.0410 C.3    14 CCL4   0.3246 
  68 CL     -11.5260   -16.8141   -17.5602 Cl     14 CCL4  -0.0812 
  69 CL     -12.6300   -16.1670   -14.9573 Cl     14 CCL4  -0.0812 
  70 CL     -13.5733   -18.5119   -16.3909 Cl     14 CCL4  -0.0812 
  71 CL       8.1948   -11.9841   -12.5308 Cl     15 CCL4  -0.0812 
  72 C        7.3786   -13.5077   -12.9181 C.3    15 CCL4   0.3246 
  73 CL       5.9947   -13.7055   -11.8153 Cl     15 CCL4  -0.0812 
  74 CL       8.5124   -14.8644   -12.7028 Cl     15 CCL4  -0.0812 
  75 CL       6.8442   -13.4466   -14.6169 Cl     15 CCL4  -0.0812 
  76 CL       6.5945    19.5427   -11.2707 Cl     16 CCL4  -0.0812 
  77 C        6.0892    20.8706   -12.3323 C.3    16 CCL4   0.3246 
  78 CL       7.2802    21.1019   -13.6351 Cl     16 CCL4  -0.0812 
  79 CL       5.9739    22.3599   -11.3647 Cl     16 CCL4  -0.0812 
  80 CL       4.5126    20.4728   -13.0504 Cl     16 CCL4  -0.0812 
  81 CL       5.1531   -13.4930    -7.9899 Cl     17 CCL4  -0.0812 
  82 C        4.0407   -14.8005    -7.5227 C.3    17 CCL4   0.3246 
  83 CL       3.0789   -15.2885    -8.9381 Cl     17 CCL4  -0.0812 
  84 CL       2.9473   -14.2198    -6.2419 Cl     17 CCL4  -0.0812 
  85 CL       4.9937   -16.1780    -6.9206 Cl     17 CCL4  -0.0812 
  86 CL       6.9393   -19.0144    22.4753 Cl     18 CCL4  -0.0812 
  87 C        5.7237   -17.7800    22.0730 C.3    18 CCL4   0.3246 
  88 CL       6.0960   -16.2756    22.9447 Cl     18 CCL4  -0.0812 
  89 CL       4.1155   -18.3784    22.5315 Cl     18 CCL4  -0.0812 
  90 CL       5.7526   -17.4549    20.3248 Cl     18 CCL4  -0.0812 
  91 CL     -14.0522    20.5940    -3.9557 Cl     19 CCL4  -0.0812 
  92 C      -13.4591    20.1939    -5.5891 C.3    19 CCL4   0.3246 
  93 CL     -14.8508    19.9311    -6.6641 Cl     19 CCL4  -0.0812 
  94 CL     -12.4830    18.7092    -5.5413 Cl     19 CCL4  -0.0812 
  95 CL     -12.4657    21.5318    -6.2094 Cl     19 CCL4  -0.0812 
  96 CL      -6.0193   -12.9211    -2.6486 Cl     20 CCL4  -0.0812 
  97 C       -5.7199   -13.5631    -1.0258 C.3    20 CCL4   0.3246 
  98 CL      -7.2689   -13.9530    -0.2402 Cl     20 CCL4  -0.0812 
  99 CL      -4.8648   -12.3459    -0.0551 Cl     20 CCL4  -0.0812 
 100 CL      -4.7223   -15.0277    -1.1692 Cl     20 CCL4  -0.0812 
 101 CL       8.1428    21.2734    -5.6512 Cl     21 CCL4  -0.0812 
 102 C        7.4599    19.7702    -6.3150 C.3    21 CCL4   0.3246 
 103 CL       8.0506    19.5008    -7.9716 Cl     21 CCL4  -0.0812 
 104 CL       5.6968    19.9133    -6.3764 Cl     21 CCL4  -0.0812 
 105 CL       7.9078    18.3877    -5.2797 Cl     21 CCL4  -0.0812 
 106 CL      -6.3826   -14.9034    -8.2858 Cl     22 CCL4  -0.0812 
 107 C       -5.8721   -13.8536    -6.9388 C.3    22 CCL4   0.3246 
 108 CL      -5.1216   -12.3691    -7.5738 Cl     22 CCL4  -0.0812 
 109 CL      -4.7164   -14.7225    -5.9023 Cl     22 CCL4  -0.0812 
 110 CL      -7.2992   -13.4106    -5.9805 Cl     22 CCL4  -0.0812 
 111 CL      -8.2122   -11.5132    -9.0522 Cl     23 CCL4  -0.0812 
 112 C       -9.9011   -11.0793    -8.6996 C.3    23 CCL4   0.3246 
 113 CL      -9.9579   -10.0014    -7.2819 Cl     23 CCL4  -0.0812 
 114 CL     -10.8318   -12.5559    -8.3520 Cl     23 CCL4  -0.0812 
 115 CL     -10.5962   -10.2497   -10.1153 Cl     23 CCL4  -0.0812 
 116 CL      -3.2266    19.6945   -10.0776 Cl     24 CCL4  -0.0812 
 117 C       -4.5587    20.7466    -9.5376 C.3    24 CCL4   0.3246 
 118 CL      -5.3264    21.5010   -10.9593 Cl     24 CCL4  -0.0812 
 119 CL      -3.9215    22.0231    -8.4643 Cl     24 CCL4  -0.0812 
 120 CL      -5.7571    19.7683    -8.6515 Cl     24 CCL4  -0.0812 
 121 CL     -11.0303    -0.7297    -4.0415 Cl     25 CCL4  -0.0812 
 122 C      -10.8251     0.5702    -2.8404 C.3    25 CCL4   0.3246 
 123 CL     -10.8893    -0.1059    -1.1965 Cl     25 CCL4  -0.0812 
 124 CL     -12.1225     1.7811    -3.0141 Cl     25 CCL4  -0.0812 
 125 CL      -9.2377     1.3351    -3.0768 Cl     25 CCL4  -0.0812 
 126 CL      -7.8371    20.9003    -2.6866 Cl     26 CCL4  -0.0812 
 127 C       -7.7623    20.5200    -4.4251 C.3    26 CCL4   0.3246 
 128 CL      -7.7207    22.0187    -5.3874 Cl     26 CCL4  -0.0812 
 129 CL      -9.1905    19.5744    -4.8929 Cl     26 CCL4  -0.0812 
 130 CL      -6.2972    19.5670    -4.7659 Cl     26 CCL4  -0.0812 
 131 CL      -1.9931    -9.6022    -5.9097 Cl     27 CCL4  -0.0812 
 132 C       -1.5279   -11.1090    -5.0841 C.3    27 CCL4   0.3246 
 133 CL      -1.9013   -12.4777    -6.1444 Cl     27 CCL4  -0.0812 
 134 CL      -2.4486   -11.2696    -3.5701 Cl     27 CCL4  -0.0812 
 135 CL       0.2203   -11.0985    -4.7399 Cl     27 CCL4  -0.0812 
 136 CL     -11.4629   -16.3700    -3.3076 Cl     28 CCL4  -0.0812 
 137 C      -10.2777   -15.1682    -3.8775 C.3    28 CCL4   0.3246 
 138 CL     -10.2008   -15.2301    -5.6540 Cl     28 CCL4  -0.0812 
 139 CL      -8.6811   -15.5442    -3.1807 Cl     28 CCL4  -0.0812 
 140 CL     -10.7787   -13.5418    -3.3634 Cl     28 CCL4  -0.0812 
 141 CL       3.7877   -10.1675    -3.2353 Cl     29 CCL4  -0.0812 
 142 C        5.1849   -11.2359    -2.9583 C.3    29 CCL4   0.3246 
 143 CL       6.6803   -10.2777    -2.9198 Cl     29 CCL4  -0.0812 
 144 CL       5.2916   -12.4395    -4.2622 Cl     29 CCL4  -0.0812 
 145 CL       4.9866   -12.0836    -1.4070 Cl     29 CCL4  -0.0812 
 146 CL       6.0386    -1.0269    -6.2781 Cl     30 CCL4  -0.0812 
 147 C        6.1627    -0.6754    -8.0168 C.3    30 CCL4   0.3246 
 148 CL       7.1985     0.7513    -8.2536 Cl     30 CCL4  -0.0812 
 149 CL       4.5580    -0.3234    -8.6853 Cl     30 CCL4  -0.0812 
 150 CL       6.8888    -2.0674    -8.8533 Cl     30 CCL4  -0.0812 
 151 CL     -11.3801    19.8609    -1.7785 Cl     31 CCL4  -0.0812 
 152 C      -12.4452    19.9700    -0.3617 C.3    31 CCL4   0.3246 
 153 CL     -11.4802    19.6677     1.0926 Cl     31 CCL4  -0.0812 
 154 CL     -13.7355    18.7563    -0.4860 Cl     31 CCL4  -0.0812 
 155 CL     -13.1639    21.5905    -0.2854 Cl     31 CCL4  -0.0812 
 156 CL      -8.7770    -7.4208   -15.4588 Cl     32 CCL4  -0.0812 
 157 C       -9.2539    -8.3411   -14.0063 C.3    32 CCL4   0.3246 
 158 CL      -8.9833   -10.0731   -14.2693 Cl     32 CCL4  -0.0812 
 159 CL     -10.9713    -8.0655   -13.6345 Cl     32 CCL4  -0.0812 
 160 CL      -8.2792    -7.8142   -12.6202 Cl     32 CCL4  -0.0812 
 161 CL     -10.4524    -1.0496    -8.6101 Cl     33 CCL4  -0.0812 
 162 C      -10.1377    -2.7049    -9.1685 C.3    33 CCL4   0.3246 
 163 CL     -10.7937    -3.8563    -7.9921 Cl     33 CCL4  -0.0812 
 164 CL      -8.3852    -2.9609    -9.3374 Cl     33 CCL4  -0.0812 
 165 CL     -10.9197    -2.9624   -10.7381 Cl     33 CCL4  -0.0812 
 166 CL      26.6204    -5.4278   -12.6360 Cl     34 CCL4  -0.0812 
 167 C       26.2333    -5.9614   -10.9846 C.3    34 CCL4   0.3246 
 168 CL      27.5541    -6.9970   -10.3933 Cl     34 CCL4  -0.0812 
 169 CL      24.7156    -6.8965   -10.9993 Cl     34 CCL4  -0.0812 
 170 CL      26.0418    -4.5315    -9.9380 Cl     34 CCL4  -0.0812 
 171 CL       7.2845    -7.9947    -0.3057 Cl     35 CCL4  -0.0812 
 172 C        7.1458    -6.2255    -0.2924 C.3    35 CCL4   0.3246 
 173 CL       7.2483    -5.6694     1.3956 Cl     35 CCL4  -0.0812 
 174 CL       5.5826    -5.7442    -0.9946 Cl     35 CCL4  -0.0812 
 175 CL       8.4630    -5.5349    -1.2690 Cl     35 CCL4  -0.0812 
 176 CL      -8.1188    -3.7610   -15.9853 Cl     36 CCL4  -0.0812 
 177 C       -9.3802    -3.3057   -14.8176 C.3    36 CCL4   0.3246 
 178 CL      -9.5196    -4.5432   -13.5488 Cl     36 CCL4  -0.0812 
 179 CL     -10.9354    -3.1700   -15.6644 Cl     36 CCL4  -0.0812 
 180 CL      -8.9711    -1.7441   -14.0751 Cl     36 CCL4  -0.0812 
 181 CL      24.8477     1.6794    -8.3118 Cl     37 CCL4  -0.0812 
 182 C       25.3772    -0.0127    -8.1965 C.3    37 CCL4   0.3246 
 183 CL      23.9598    -1.0692    -8.0845 Cl     37 CCL4  -0.0812 
 184 CL      26.4046    -0.2313    -6.7582 Cl     37 CCL4  -0.0812 
 185 CL      26.2854    -0.4547    -9.6564 Cl     37 CCL4  -0.0812 
 186 CL      26.0475    -9.5466   -15.8469 Cl     38 CCL4  -0.0812 
 187 C       25.9669    -7.9175   -16.5515 C.3    38 CCL4   0.3246 
 188 CL      25.4236    -8.0402   -18.2391 Cl     38 CCL4  -0.0812 
 189 CL      27.5781    -7.1621   -16.5279 Cl     38 CCL4  -0.0812 
 190 CL      24.8294    -6.9348   -15.6033 Cl     38 CCL4  -0.0812 
 191 CL       5.3424   -10.0570    -9.3381 Cl     39 CCL4  -0.0812 
 192 C        4.2625    -9.6070    -7.9961 C.3    39 CCL4   0.3246 
 193 CL       5.1580    -9.7864    -6.4725 Cl     39 CCL4  -0.0812 
 194 CL       2.8243   -10.6577    -7.9713 Cl     39 CCL4  -0.0812 
 195 CL       3.7508    -7.9124    -8.1783 Cl     39 CCL4  -0.0812 
 196 CL       5.9718    -4.8903   -10.8596 Cl     40 CCL4  -0.0812 
 197 C        5.2623    -3.9527   -12.1969 C.3    40 CCL4   0.3246 
 198 CL       3.7478    -4.7293   -12.7333 Cl     40 CCL4  -0.0812 
 199 CL       6.4043    -3.8767   -13.5603 Cl     40 CCL4  -0.0812 
 200 CL       4.8981    -2.2943   -11.6635 Cl     40 CCL4  -0.0812 
 201 CL      -5.5928    -4.2233    -3.8206 Cl     41 CCL4  -0.0812 
 202 C       -7.0585    -4.0071    -2.8350 C.3    41 CCL4   0.3246 
 203 CL      -7.1873    -5.3250    -1.6447 Cl     41 CCL4  -0.0812 
 204 CL      -8.5008    -4.0211    -3.8824 Cl     41 CCL4  -0.0812 
 205 CL      -6.9829    -2.4550    -1.9631 Cl     41 CCL4  -0.0812 
 206 CL      -7.5594    -5.6307    -7.1514 Cl     42 CCL4  -0.0812 
 207 C       -7.4247    -6.5838    -8.6472 C.3    42 CCL4   0.3246 
 208 CL      -9.0040    -6.6007    -9.4618 Cl     42 CCL4  -0.0812 
 209 CL      -6.9616    -8.2452    -8.2114 Cl     42 CCL4  -0.0812 
 210 CL      -6.1846    -5.8872    -9.7191 Cl     42 CCL4  -0.0812 
 211 CL      -2.5528    -3.7653    -8.7810 Cl     43 CCL4  -0.0812 
 212 C       -3.4915    -4.0282    -7.2936 C.3    43 CCL4   0.3246 
 213 CL      -5.0931    -3.2917    -7.4863 Cl     43 CCL4  -0.0812 
 214 CL      -2.6748    -3.2342    -5.9329 Cl     43 CCL4  -0.0812 
 215 CL      -3.6563    -5.7748    -6.9823 Cl     43 CCL4  -0.0812 
 216 CL      27.4009   -10.0479    -3.4016 Cl     44 CCL4  -0.0812 
 217 C       25.7459   -10.5630    -2.9978 C.3    44 CCL4   0.3246 
 218 CL      25.2066    -9.7327    -1.5161 Cl     44 CCL4  -0.0812 
 219 CL      25.7068   -12.3265    -2.7385 Cl     44 CCL4  -0.0812 
 220 CL      24.6560   -10.1274    -4.3351 Cl     44 CCL4  -0.0812 
 221 CL     -12.6311    -4.2534    -5.2028 Cl     45 CCL4  -0.0812 
 222 C      -12.7023    -6.0104    -5.4994 C.3    45 CCL4   0.3246 
 223 CL     -13.2971    -6.3566    -7.1353 Cl     45 CCL4  -0.0812 
 224 CL     -13.8208    -6.7439    -4.3244 Cl     45 CCL4  -0.0812 
 225 CL     -11.0859    -6.7330    -5.2999 Cl     45 CCL4  -0.0812 
 226 CL      -6.2941     1.9419    -5.1640 Cl     46 CCL4  -0.0812 
 227 C       -5.6649     0.4210    -5.8243 C.3    46 CCL4   0.3246 
 228 CL      -3.8970     0.3816    -5.6377 Cl     46 CCL4  -0.0812 
 229 CL      -6.1011     0.3012    -7.5441 Cl     46 CCL4  -0.0812 
 230 CL      -6.3910    -0.9400    -4.9538 Cl     46 CCL4  -0.0812 
 231 CL      22.8130    -0.3573    -1.5695 Cl     47 CCL4  -0.0812 
 232 C       24.0469    -1.6372    -1.5157 C.3    47 CCL4   0.3246 
 233 CL      23.3181    -3.1527    -0.9334 Cl     47 CCL4  -0.0812 
 234 CL      25.3583    -1.1617    -0.4051 Cl     47 CCL4  -0.0812 
 235 CL      24.7199    -1.8858    -3.1459 Cl     47 CCL4  -0.0812 
 236 CL     -10.6911    -7.1407    -1.6205 Cl     48 CCL4  -0.0812 
 237 C      -11.0863    -6.1167    -0.2221 C.3    48 CCL4   0.3246 
 238 CL     -10.0692    -6.5875     1.1603 Cl     48 CCL4  -0.0812 
 239 CL     -12.8066    -6.3280     0.1853 Cl     48 CCL4  -0.0812 
 240 CL     -10.7813    -4.4098    -0.6349 Cl     48 CCL4  -0.0812 
 241 CL      -6.1512    -9.3905    -1.8195 Cl     49 CCL4  -0.0812 
 242 C       -6.9152    -9.4358    -3.4294 C.3    49 CCL4   0.3246 
 243 CL      -5.8200   -10.2048    -4.6004 Cl     49 CCL4  -0.0812 
 244 CL      -7.2448    -7.7812    -3.9886 Cl     49 CCL4  -0.0812 
 245 CL      -8.4432   -10.3494    -3.3507 Cl     49 CCL4  -0.0812 
 246 CL       0.5079    -3.1645    -7.3151 Cl     50 CCL4  -0.0812 
 247 C        2.1516    -2.8480    -6.7299 C.3    50 CCL4   0.3246 
 248 CL       2.3458    -1.1328    -6.3152 Cl     50 CCL4  -0.0812 
 249 CL       3.3139    -3.3358    -7.9856 Cl     50 CCL4  -0.0812 
 250 CL       2.4562    -3.8160    -5.2771 Cl     50 CCL4  -0.0812 
 251 CL      -3.5544    -6.2877    -1.6002 Cl     51 CCL4  -0.0812 
 252 C       -3.4512    -7.1555    -0.0490 C.3    51 CCL4   0.3246 
 253 CL      -2.2493    -6.3444     0.9813 Cl     51 CCL4  -0.0812 
 254 CL      -2.9441    -8.8378    -0.3385 Cl     51 CCL4  -0.0812 
 255 CL      -5.0342    -7.1274     0.7655 Cl     51 CCL4  -0.0812 
 256 CL      -0.4026    -8.5192   -16.2621 Cl     52 CCL4  -0.0812 
 257 C       -0.1937    -6.9545   -15.4374 C.3    52 CCL4   0.3246 
 258 CL      -1.3707    -5.7748   -16.0676 Cl     52 CCL4  -0.0812 
 259 CL       1.4526    -6.3512   -15.7280 Cl     52 CCL4  -0.0812 
 260 CL      -0.4471    -7.1629   -13.6934 Cl     52 CCL4  -0.0812 
 261 CL      -2.9014   -15.0045   -15.4044 Cl     53 CCL4  -0.0812 
 262 C       -3.2470   -16.2652   -14.2015 C.3    53 CCL4   0.3246 
 263 CL      -3.7760   -15.4928   -12.6875 Cl     53 CCL4  -0.0812 
 264 CL      -1.7666   -17.2017   -13.8847 Cl     53 CCL4  -0.0812 
 265 CL      -4.5145   -17.3486   -14.8247 Cl     53 CCL4  -0.0812 
 266 CL       2.4923   -13.6843     1.7676 Cl     54 CCL4  -0.0812 
 267 C        2.6308   -15.3877     2.2759 C.3    54 CCL4   0.3246 
 268 CL       1.1173   -15.9053     3.0575 Cl     54 CCL4  -0.0812 
 269 CL       3.9667   -15.5731     3.4359 Cl     54 CCL4  -0.0812 
 270 CL       2.9253   -16.4020     0.8389 Cl     54 CCL4  -0.0812 
 271 CL       3.6280   -12.6306    24.0484 Cl     55 CCL4  -0.0812 
 272 C        4.1638   -11.9056    22.5185 C.3    55 CCL4   0.3246 
 273 CL       5.4976   -12.8679    21.8336 Cl     55 CCL4  -0.0812 
 274 CL       4.7196   -10.2437    22.8217 Cl     55 CCL4  -0.0812 
 275 CL       2.7919   -11.8755    21.3814 Cl     55 CCL4  -0.0812 
 276 CL       1.9635   -17.0891   -14.8751 Cl     56 CCL4  -0.0812 
 277 C        2.7326   -16.0850   -13.6251 C.3    56 CCL4   0.3246 
 278 CL       2.5589   -16.8876   -12.0510 Cl     56 CCL4  -0.0812 
 279 CL       1.9294   -14.5025   -13.5486 Cl     56 CCL4  -0.0812 
 280 CL       4.4554   -15.8733   -13.9930 Cl     56 CCL4  -0.0812 
 281 CL       3.4476    -8.5639   -11.7672 Cl     57 CCL4  -0.0812 
 282 C        3.3475   -10.1092   -12.6494 C.3    57 CCL4   0.3246 
 283 CL       2.1870    -9.9362   -13.9865 Cl     57 CCL4  -0.0812 
 284 CL       2.8171   -11.4156   -11.5604 Cl     57 CCL4  -0.0812 
 285 CL       4.9390   -10.5142   -13.3246 Cl     57 CCL4  -0.0812 
 286 CL      -2.1736   -14.9762   -19.0495 Cl     58 CCL4  -0.0812 
 287 C       -0.9593   -16.1625   -18.4971 C.3    58 CCL4   0.3246 
 288 CL      -0.1519   -16.8741   -19.9078 Cl     58 CCL4  -0.0812 
 289 CL      -1.7488   -17.4489   -17.5507 Cl     58 CCL4  -0.0812 
 290 CL       0.2472   -15.3284   -17.4838 Cl     58 CCL4  -0.0812 
 291 CL      -1.5648    -1.6908   -11.7969 Cl     59 CCL4  -0.0812 
 292 C        0.1345    -1.7815   -12.3170 C.3    59 CCL4   0.3246 
 293 CL       1.1776    -1.8933   -10.8764 Cl     59 CCL4  -0.0812 
 294 CL       0.5380    -0.3458   -13.2930 Cl     59 CCL4  -0.0812 
 295 CL       0.3635    -3.2394   -13.3100 Cl     59 CCL4  -0.0812 
 296 CL      -3.5839    -2.5427   -18.2646 Cl     60 CCL4  -0.0812 
 297 C       -2.3633    -1.3605   -17.7360 C.3    60 CCL4   0.3246 
 298 CL      -1.7639    -1.7738   -16.1092 Cl     60 CCL4  -0.0812 
 299 CL      -3.0805     0.2671   -17.7234 Cl     60 CCL4  -0.0812 
 300 CL      -1.0214    -1.3825   -18.8961 Cl     60 CCL4  -0.0812 
 301 CL      -0.2914   -15.4467    -7.6158 Cl     61 CCL4  -0.0812 
 302 C       -0.9126   -14.6809    -9.0957 C.3    61 CCL4   0.3246 
 303 CL      -2.6699   -14.4518    -8.9557 Cl     61 CCL4  -0.0812 
 304 CL      -0.5807   -15.7290   -10.4928 Cl     61 CCL4  -0.0812 
 305 CL      -0.1128   -13.1109    -9.3550 Cl     61 CCL4  -0.0812 
 306 CL      -2.9775   -10.6729   -10.5030 Cl     62 CCL4  -0.0812 
 307 C       -3.9440   -10.1862   -11.9156 C.3    62 CCL4   0.3246 
 308 CL      -4.8396   -11.5990   -12.5154 Cl     62 CCL4  -0.0812 
 309 CL      -2.8742    -9.5849   -13.2007 Cl     62 CCL4  -0.0812 
 310 CL      -5.0994    -8.9168   -11.4564 Cl     62 CCL4  -0.0812 
 311 CL       0.4197    20.6283    -8.0729 Cl     63 CCL4  -0.0812 
 312 C        2.0537    20.7137    -7.3702 C.3    63 CCL4   0.3246 
 313 CL       3.2427    21.0050    -8.6649 Cl     63 CCL4  -0.0812 
 314 CL       2.3918    19.1744    -6.5439 Cl     63 CCL4  -0.0812 
 315 CL       2.0914    22.0503    -6.1992 Cl     63 CCL4  -0.0812 
 316 CL       1.9582   -10.0125     2.3798 Cl     64 CCL4  -0.0812 
 317 C        2.4101    -9.5009     0.7368 C.3    64 CCL4   0.3246 
 318 CL       1.7361    -7.8906     0.4005 Cl     64 CCL4  -0.0812 
 319 CL       1.7305   -10.6583    -0.4296 Cl     64 CCL4  -0.0812 
 320 CL       4.1829    -9.4454     0.6013 Cl     64 CCL4  -0.0812 
 321 CL      -2.9217     0.9405    -8.8677 Cl     65 CCL4  -0.0812 
 322 C       -1.2959     1.5819    -9.1310 C.3    65 CCL4   0.3246 
 323 CL      -1.1232     3.1542    -8.3292 Cl     65 CCL4  -0.0812 
 324 CL      -1.0423     1.7909   -10.8761 Cl     65 CCL4  -0.0812 
 325 CL      -0.1100     0.4364    -8.4724 Cl     65 CCL4  -0.0812 
 326 CL      -3.6283    -1.4859    -2.8017 Cl     66 CCL4  -0.0812 
 327 C       -1.8727    -1.4886    -2.5325 C.3    66 CCL4   0.3246 
 328 CL      -1.0352    -0.7562    -3.9218 Cl     66 CCL4  -0.0812 
 329 CL      -1.3211    -3.1654    -2.3126 Cl     66 CCL4  -0.0812 
 330 CL      -1.5153    -0.5498    -1.0640 Cl     66 CCL4  -0.0812 
 331 CL      -0.2053   -17.4147    -1.5069 Cl     67 CCL4  -0.0812 
 332 C       -0.0528   -15.7131    -1.9938 C.3    67 CCL4   0.3246 
 333 CL      -1.3832   -15.2833    -3.0969 Cl     67 CCL4  -0.0812 
 334 CL       1.5023   -15.4636    -2.8194 Cl     67 CCL4  -0.0812 
 335 CL      -0.1456   -14.6705    -0.5552 Cl     67 CCL4  -0.0812 
 336 CL       4.0516    21.0404    -3.5856 Cl     68 CCL4  -0.0812 
 337 C        3.3315    19.6359    -2.7678 C.3    68 CCL4   0.3246 
 338 CL       3.5438    19.8411    -1.0173 Cl     68 CCL4  -0.0812 
 339 CL       4.1550    18.1515    -3.3032 Cl     68 CCL4  -0.0812 
 340 CL       1.5910    19.5444    -3.1321 Cl     68 CCL4  -0.0812 
 341 CL       1.5956    -7.6471    -5.2002 Cl     69 CCL4  -0.0812 
 342 C        0.5870    -6.8326    -3.9805 C.3    69 CCL4   0.3246 
 343 CL      -0.4545    -5.6262    -4.7628 Cl     69 CCL4  -0.0812 
 344 CL       1.6217    -6.0336    -2.7734 Cl     69 CCL4  -0.0812 
 345 CL      -0.4253    -8.0332    -3.1494 Cl     69 CCL4  -0.0812 
 346 CL      -2.6002    -3.3705     3.4342 Cl     70 CCL4  -0.0812 
 347 C       -3.5409    -2.1735     2.5116 C.3    70 CCL4   0.3246 
 348 CL      -2.6540    -0.6296     2.4658 Cl     70 CCL4  -0.0812 
 349 CL      -5.1151    -1.9306     3.2980 Cl     70 CCL4  -0.0812 
 350 CL      -3.8028    -2.7759     0.8548 Cl     70 CCL4  -0.0812 
 351 CL      -5.3320    -8.7261    20.6023 Cl     71 CCL4  -0.0812 
 352 C       -4.5018    -7.4490    21.5248 C.3    71 CCL4   0.3246 
 353 CL      -3.8420    -8.1538    23.0150 Cl     71 CCL4  -0.0812 
 354 CL      -5.6568    -6.1517    21.9170 Cl     71 CCL4  -0.0812 
 355 CL      -3.1637    -6.7863    20.5558 Cl     71 CCL4  -0.0812 
 356 CL       0.3920    -5.8516   -10.4998 Cl     72 CCL4  -0.0812 
 357 C       -0.5536    -7.1985    -9.8190 C.3    72 CCL4   0.3246 
 358 CL      -0.4348    -7.1456    -8.0470 Cl     72 CCL4  -0.0812 
 359 CL       0.0957    -8.7519   -10.4092 Cl     72 CCL4  -0.0812 
 360 CL      -2.2613    -7.0267   -10.2944 Cl     72 CCL4  -0.0812 
 361 CL      -4.6703    -4.0508   -15.4157 Cl     73 CCL4  -0.0812 
 362 C       -4.8130    -4.9754   -13.9081 C.3    73 CCL4   0.3246 
 363 CL      -6.0561    -4.2195   -12.8931 Cl     73 CCL4  -0.0812 
 364 CL      -3.2505    -4.9211   -13.0629 Cl     73 CCL4  -0.0812 
 365 CL      -5.2822    -6.6528   -14.2574 Cl     73 CCL4  -0.0812 
 366 CL      -5.6381    -0.5855   -13.2803 Cl     74 CCL4  -0.0812 
 367 C       -5.8897    -0.1237   -11.5793 C.3    74 CCL4   0.3246 
 368 CL      -5.2945     1.5328   -11.3173 Cl     74 CCL4  -0.0812 
 369 CL      -4.9982    -1.2720   -10.5545 Cl     74 CCL4  -0.0812 
 370 CL      -7.6187    -0.1786   -11.1828 Cl     74 CCL4  -0.0812 
 371 CL      -5.7403   -12.6569     7.0271 Cl     75 CCL4  -0.0812 
 372 C       -5.0283   -12.2037     8.5872 C.3    75 CCL4   0.3246 
 373 CL      -5.2984   -13.5158     9.7535 Cl     75 CCL4  -0.0812 
 374 CL      -5.8152   -10.7242     9.1879 Cl     75 CCL4  -0.0812 
 375 CL      -3.2716   -11.9711     8.4370 Cl     75 CCL4  -0.0812 
 376 CL      -7.7179    18.9289    13.7977 Cl     76 CCL4  -0.0812 
 377 C       -6.9924    19.4795    12.2647 C.3    76 CCL4   0.3246 
 378 CL      -7.0432    18.1493    11.0851 Cl     76 CCL4  -0.0812 
 379 CL      -5.3040    19.9674    12.5468 Cl     76 CCL4  -0.0812 
 380 CL      -7.9132    20.8632    11.6381 Cl     76 CCL4  -0.0812 
 381 CL      26.4190   -11.0869    11.6090 Cl     77 CCL4  -0.0812 
 382 C       26.4008   -12.8047    12.0648 C.3    77 CCL4   0.3246 
 383 CL      26.2241   -12.9099    13.8276 Cl     77 CCL4  -0.0812 
 384 CL      27.9317   -13.5431    11.5598 Cl     77 CCL4  -0.0812 
 385 CL      25.0390   -13.6203    11.2565 Cl     77 CCL4  -0.0812 
 386 CL     -13.0220    -1.1514    11.4560 Cl     78 CCL4  -0.0812 
 387 C      -12.6018     0.5418    11.8156 C.3    78 CCL4   0.3246 
 388 CL     -13.4449     1.0686    13.2935 Cl     78 CCL4  -0.0812 
 389 CL     -13.0986     1.5772    10.4573 Cl     78 CCL4  -0.0812 
 390 CL     -10.8449     0.6694    12.0553 Cl     78 CCL4  -0.0812 
 391 CL      -7.9411   -13.0386    11.8845 Cl     79 CCL4  -0.0812 
 392 C       -8.3691   -14.7373    12.1744 C.3    79 CCL4   0.3246 
 393 CL      -6.9253   -15.6578    12.6409 Cl     79 CCL4  -0.0812 
 394 CL      -9.0256   -15.4358    10.6783 Cl     79 CCL4  -0.0812 
 395 CL      -9.5517   -14.8074    13.5043 Cl     79 CCL4  -0.0812 
 396 CL      28.3427    19.1480    12.1581 Cl     80 CCL4  -0.0812 
 397 C       27.2804    19.2562    13.5800 C.3    80 CCL4   0.3246 
 398 CL      27.9399    20.4515    14.7236 Cl     80 CCL4  -0.0812 
 399 CL      27.2326    17.6601    14.3566 Cl     80 CCL4  -0.0812 
 400 CL      25.6300    19.7126    13.0975 Cl     80 CCL4  -0.0812 
 401 CL       3.9834    -3.9624     9.6627 Cl     81 CCL4  -0.0812 
 402 C        3.7867    -2.4196     8.7953 C.3    81 CCL4   0.3246 
 403 CL       4.0763    -1.0788     9.9297 Cl     81 CCL4  -0.0812 
 404 CL       2.1305    -2.3162     8.1661 Cl     81 CCL4  -0.0812 
 405 CL       4.9517    -2.3399     7.4532 Cl     81 CCL4  -0.0812 
 406 CL      -5.1451     2.0727     8.8934 Cl     82 CCL4  -0.0812 
 407 C       -6.7471     1.3111     8.8736 C.3    82 CCL4   0.3246 
 408 CL      -6.6268    -0.3021     8.1422 Cl     82 CCL4  -0.0812 
 409 CL      -7.8416     2.3129     7.9114 Cl     82 CCL4  -0.0812 
 410 CL      -7.3398     1.1812    10.5418 Cl     82 CCL4  -0.0812 
 411 CL     -13.2385    -0.7164     7.4191 Cl     83 CCL4  -0.0812 
 412 C      -11.7047    -0.0125     6.8545 C.3    83 CCL4   0.3246 
 413 CL     -10.7170     0.4555     8.2575 Cl     83 CCL4  -0.0812 
 414 CL     -12.0191     1.4241     5.8481 Cl     83 CCL4  -0.0812 
 415 CL     -10.7977    -1.2172     5.9100 Cl     83 CCL4  -0.0812 
 416 CL      -2.2152   -16.8812     1.6389 Cl     84 CCL4  -0.0812 
 417 C       -3.2527   -16.3308     2.9718 C.3    84 CCL4   0.3246 
 418 CL      -4.1159   -17.7258     3.6604 Cl     84 CCL4  -0.0812 
 419 CL      -4.4210   -15.1386     2.3585 Cl     84 CCL4  -0.0812 
 420 CL      -2.2549   -15.5446     4.2138 Cl     84 CCL4  -0.0812 
 421 CL      -7.7765   -16.2130     6.6219 Cl     85 CCL4  -0.0812 
 422 C       -6.2508   -16.9118     7.2201 C.3    85 CCL4   0.3246 
 423 CL      -6.2580   -16.9084     8.9985 Cl     85 CCL4  -0.0812 
 424 CL      -4.8825   -15.9528     6.6247 Cl     85 CCL4  -0.0812 
 425 CL      -6.0968   -18.5831     6.6303 Cl     85 CCL4  -0.0812 
 426 CL     -12.1201   -17.0893     2.9312 Cl     86 CCL4  -0.0812 
 427 C      -12.6067   -18.1221     4.2999 C.3    86 CCL4   0.3246 
 428 CL     -13.5774   -17.1682     5.4474 Cl     86 CCL4  -0.0812 
 429 CL     -11.1607   -18.7357     5.1402 Cl     86 CCL4  -0.0812 
 430 CL     -13.5936   -19.4730     3.6974 Cl     86 CCL4  -0.0812 
 431 CL      -9.7270   -10.9606     6.3728 Cl     87 CCL4  -0.0812 
 432 C      -10.2169   -12.4249     7.2568 C.3    87 CCL4   0.3246 
 433 CL     -11.7479   -12.1384     8.1147 Cl     87 CCL4  -0.0812 
 434 CL      -8.9414   -12.8338     8.4238 Cl     87 CCL4  -0.0812 
 435 CL     -10.4157   -13.7586     6.0970 Cl     87 CCL4  -0.0812 
 436 CL     -10.8425   -18.7133     9.6498 Cl     88 CCL4  -0.0812 
 437 C      -12.0547   -17.5918    10.3128 C.3    88 CCL4   0.3246 
 438 CL     -12.1453   -16.1577     9.2594 Cl     88 CCL4  -0.0812 
 439 CL     -11.6090   -17.1293    11.9728 Cl     88 CCL4  -0.0812 
 440 CL     -13.6585   -18.3550    10.3453 Cl     88 CCL4  -0.0812 
 441 CL       7.8938   -12.5599    12.7623 Cl     89 CCL4  -0.0812 
 442 C        6.8842   -13.9357    12.2594 C.3    89 CCL4   0.3246 
 443 CL       5.5783   -14.1861    13.4390 Cl     89 CCL4  -0.0812 
 444 CL       7.9017   -15.3909    12.1671 Cl     89 CCL4  -0.0812 
 445 CL       6.2044   -13.6095    10.6476 Cl     89 CCL4  -0.0812 
 446 CL       7.8087    19.7344    12.9367 Cl     90 CCL4  -0.0812 
 447 C        6.3076    20.5677    12.4842 C.3    90 CCL4   0.3246 
 448 CL       6.4852    21.2381    10.8547 Cl     90 CCL4  -0.0812 
 449 CL       5.9983    21.8852    13.6373 Cl     90 CCL4  -0.0812 
 450 CL       4.9415    19.4295    12.5034 Cl     90 CCL4  -0.0812 
 451 CL       5.3125   -19.2669     7.5121 Cl     91 CCL4  -0.0812 
 452 C        6.1499   -17.8513     6.8315 C.3    91 CCL4   0.3246 
 453 CL       7.6038   -17.4918     7.7945 Cl     91 CCL4  -0.0812 
 454 CL       5.0563   -16.4484     6.8666 Cl     91 CCL4  -0.0812 
 455 CL       6.6114   -18.2311     5.1536 Cl     91 CCL4  -0.0812 
 456 CL     -14.7617    20.3770    19.8698 Cl     92 CCL4  -0.0812 
 457 C      -13.0965    20.0216    19.3459 C.3    92 CCL4   0.3246 
 458 CL     -13.1223    18.8855    17.9755 Cl     92 CCL4  -0.0812 
 459 CL     -12.1980    19.2952    20.7025 Cl     92 CCL4  -0.0812 
 460 CL     -12.2822    21.5226    18.8387 Cl     92 CCL4  -0.0812 
 461 CL       8.6454    20.9318    18.8731 Cl     93 CCL4  -0.0812 
 462 C        7.8229    19.6010    18.0351 C.3    93 CCL4   0.3246 
 463 CL       8.5002    19.3893    16.4083 Cl     93 CCL4  -0.0812 
 464 CL       6.0849    19.9579    17.9063 Cl     93 CCL4  -0.0812 
 465 CL       8.0435    18.1004    18.9620 Cl     93 CCL4  -0.0812 
 466 CL      -6.4682   -13.4866    15.7412 Cl     94 CCL4  -0.0812 
 467 C       -5.4686   -13.0546    17.1513 C.3    94 CCL4   0.3246 
 468 CL      -5.0795   -11.3203    17.0809 Cl     94 CCL4  -0.0812 
 469 CL      -3.9532   -13.9911    17.1320 Cl     94 CCL4  -0.0812 
 470 CL      -6.3765   -13.4286    18.6357 Cl     94 CCL4  -0.0812 
 471 CL      -9.0861   -10.6531    15.2468 Cl     95 CCL4  -0.0812 
 472 C       -9.6885   -10.9111    16.8994 C.3    95 CCL4   0.3246 
 473 CL      -8.4018   -10.5335    18.0608 Cl     95 CCL4  -0.0812 
 474 CL     -10.1771   -12.6122    17.0800 Cl     95 CCL4  -0.0812 
 475 CL     -11.0751    -9.8354    17.1960 Cl     95 CCL4  -0.0812 
 476 CL      -2.9097    20.3038    15.4544 Cl     96 CCL4  -0.0812 
 477 C       -4.1490    21.2120    16.3573 C.3    96 CCL4   0.3246 
 478 CL      -5.1189    22.1907    15.2299 Cl     96 CCL4  -0.0812 
 479 CL      -3.3594    22.2922    17.5279 Cl     96 CCL4  -0.0812 
 480 CL      -5.2043    20.0632    17.2172 Cl     96 CCL4  -0.0812 
 481 CL       6.4184    -2.7123    19.3846 Cl     97 CCL4  -0.0812 
 482 C        6.7179    -2.2557    17.6905 C.3    97 CCL4   0.3246 
 483 CL       7.9062    -0.9323    17.6254 Cl     97 CCL4  -0.0812 
 484 CL       5.1882    -1.7011    16.9621 Cl     97 CCL4  -0.0812 
 485 CL       7.3607    -3.6511    16.7906 Cl     97 CCL4  -0.0812 
 486 CL      -8.7710    -8.3814     8.5205 Cl     98 CCL4  -0.0812 
 487 C       -9.3085    -8.4941    10.2108 C.3    98 CCL4   0.3246 
 488 CL      -9.9559   -10.1165    10.5477 Cl     98 CCL4  -0.0812 
 489 CL     -10.5712    -7.2871    10.5269 Cl     98 CCL4  -0.0812 
 490 CL      -7.9335    -8.2114    11.2936 Cl     98 CCL4  -0.0812 
 491 CL     -11.0095    -2.8395    17.4672 Cl     99 CCL4  -0.0812 
 492 C      -11.0872    -3.3830    15.7781 C.3    99 CCL4   0.3246 
 493 CL     -11.7368    -5.0393    15.7380 Cl     99 CCL4  -0.0812 
 494 CL      -9.4630    -3.3390    15.0592 Cl     99 CCL4  -0.0812 
 495 CL     -12.1589    -2.3117    14.8467 Cl     99 CCL4  -0.0812 
 496 CL      25.9719    -5.3207    12.8762 Cl    100 CCL4  -0.0812 
 497 C       25.3001    -6.5538    13.9742 C.3   100 CCL4   0.3246 
 498 CL      26.5451    -7.7709    14.3460 Cl    100 CCL4  -0.0812 
 499 CL      23.9225    -7.3671    13.2013 Cl    100 CCL4  -0.0812 
 500 CL      24.7356    -5.7695    15.4720 Cl    100 CCL4  -0.0812 
 501 CL       1.8055    -8.1098     5.6304 Cl    101 CCL4  -0.0812 
 502 C        1.9446    -6.4909     4.9034 C.3   101 CCL4   0.3246 
 503 CL       2.9129    -6.5855     3.4168 Cl    101 CCL4  -0.0812 
 504 CL       2.7607    -5.3925     6.0388 Cl    101 CCL4  -0.0812 
 505 CL       0.3168    -5.8699     4.5244 Cl    101 CCL4  -0.0812 
 506 CL      -8.6887    -4.6493     9.1455 Cl    102 CCL4  -0.0812 
 507 C       -9.7735    -3.5133     9.9756 C.3   102 CCL4   0.3246 
 508 CL     -10.1752    -4.1198    11.5973 Cl    102 CCL4  -0.0812 
 509 CL     -11.2684    -3.3160     9.0349 Cl    102 CCL4  -0.0812 
 510 CL      -8.9598    -1.9475    10.1446 Cl    102 CCL4  -0.0812 
 511 CL      -7.5950    -6.1905     4.0276 Cl    103 CCL4  -0.0812 
 512 C       -8.3366    -4.8741     4.9650 C.3   103 CCL4   0.3246 
 513 CL      -9.6962    -5.5165     5.9150 Cl    103 CCL4  -0.0812 
 514 CL      -8.9219    -3.6219     3.8488 Cl    103 CCL4  -0.0812 
 515 CL      -7.1192    -4.1467     6.0378 Cl    103 CCL4  -0.0812 
 516 CL     -12.7993   -10.4218     4.7180 Cl    104 CCL4  -0.0812 
 517 C      -12.5518    -8.9339     3.7688 C.3   104 CCL4   0.3246 
 518 CL     -13.7896    -7.7417     4.2285 Cl    104 CCL4  -0.0812 
 519 CL     -12.7098    -9.3012     2.0401 Cl    104 CCL4  -0.0812 
 520 CL     -10.9244    -8.2944     4.0884 Cl    104 CCL4  -0.0812 
 521 CL      26.1015    -3.2685     5.0522 Cl    105 CCL4  -0.0812 
 522 C       26.7501    -3.3905     3.4014 C.3   105 CCL4   0.3246 
 523 CL      27.5713    -1.8721     2.9624 Cl    105 CCL4  -0.0812 
 524 CL      25.4139    -3.6826     2.2686 Cl    105 CCL4  -0.0812 
 525 CL      27.8933    -4.7473     3.3100 Cl    105 CCL4  -0.0812 
 526 CL      25.0280    -9.8617     8.3993 Cl    106 CCL4  -0.0812 
 527 C       25.9727    -8.3667     8.5893 C.3   106 CCL4   0.3246 
 528 CL      25.2472    -7.0544     7.6432 Cl    106 CCL4  -0.0812 
 529 CL      27.6221    -8.6445     7.9905 Cl    106 CCL4  -0.0812 
 530 CL      26.0196    -7.8822    10.2992 Cl    106 CCL4  -0.0812 
 531 CL       5.5026   -10.2965    16.3669 Cl    107 CCL4  -0.0812 
 532 C        4.3727    -9.7062    17.6066 C.3   107 CCL4   0.3246 
 533 CL       5.1638    -9.7755    19.1960 Cl    107 CCL4  -0.0812 
 534 CL       2.9151   -10.7259    17.6304 Cl    107 CCL4  -0.0812 
 535 CL       3.9151    -8.0300    17.2351 Cl    107 CCL4  -0.0812 
 536 CL       4.4511    -4.8054    15.4908 Cl    108 CCL4  -0.0812 
 537 C        4.5649    -4.7164    13.7220 C.3   108 CCL4   0.3246 
 538 CL       3.0294    -5.2768    13.0254 Cl    108 CCL4  -0.0812 
 539 CL       5.8796    -5.7656    13.1465 Cl    108 CCL4  -0.0812 
 540 CL       4.8880    -3.0358    13.2232 Cl    108 CCL4  -0.0812 
 541 CL      -4.9241   -10.3944     2.7568 Cl    109 CCL4  -0.0812 
 542 C       -6.5118   -10.7551     3.4797 C.3   109 CCL4   0.3246 
 543 CL      -6.7163   -12.5145     3.6565 Cl    109 CCL4  -0.0812 
 544 CL      -7.8030   -10.1257     2.4278 Cl    109 CCL4  -0.0812 
 545 CL      -6.6132    -9.9538     5.0631 Cl    109 CCL4  -0.0812 
 546 CL      -8.2835    -6.2356    17.6182 Cl    110 CCL4  -0.0812 
 547 C       -7.5308    -6.5625    16.0333 C.3   110 CCL4   0.3246 
 548 CL      -8.7822    -6.7977    14.7896 Cl    110 CCL4  -0.0812 
 549 CL      -6.5451    -8.0408    16.1324 Cl    110 CCL4  -0.0812 
 550 CL      -6.4852    -5.1936    15.5821 Cl    110 CCL4  -0.0812 
 551 CL      -6.4597    -0.0543    19.9194 Cl    111 CCL4  -0.0812 
 552 C       -6.9290    -1.5683    19.1201 C.3   111 CCL4   0.3246 
 553 CL      -5.4608    -2.4566    18.6512 Cl    111 CCL4  -0.0812 
 554 CL      -7.8695    -1.1572    17.6647 Cl    111 CCL4  -0.0812 
 555 CL      -7.8942    -2.5858    20.2169 Cl    111 CCL4  -0.0812 
 556 CL       0.3833    -4.2954    19.7624 Cl    112 CCL4  -0.0812 
 557 C        1.6697    -3.5826    18.7676 C.3   112 CCL4   0.3246 
 558 CL       1.9189    -1.8860    19.2360 Cl    112 CCL4  -0.0812 
 559 CL       1.1805    -3.6450    17.0625 Cl    112 CCL4  -0.0812 
 560 CL       3.1728    -4.5005    19.0157 Cl    112 CCL4  -0.0812 
 561 CL      -0.4860    -8.5590     8.5871 Cl    113 CCL4  -0.0812 
 562 C        0.0425    -7.2310     9.6451 C.3   113 CCL4   0.3246 
 563 CL       0.5437    -5.8468     8.6489 Cl    113 CCL4  -0.0812 
 564 CL       1.4184    -7.7705    10.6345 Cl    113 CCL4  -0.0812 
 565 CL      -1.2938    -6.7442    10.6983 Cl    113 CCL4  -0.0812 
 566 CL      -2.0288   -14.0950    11.5641 Cl    114 CCL4  -0.0812 
 567 C       -2.7539   -15.4210    12.4988 C.3   114 CCL4   0.3246 
 568 CL      -3.8691   -14.7270    13.6895 Cl    114 CCL4  -0.0812 
 569 CL      -1.4866   -16.3479    13.3365 Cl    114 CCL4  -0.0812 
 570 CL      -3.6291   -16.5021    11.3910 Cl    114 CCL4  -0.0812 
 571 CL       2.8712   -12.4041     7.8508 Cl    115 CCL4  -0.0812 
 572 C        4.2263   -11.8398     6.8386 C.3   115 CCL4   0.3246 
 573 CL       5.6838   -12.7739     7.2343 Cl    115 CCL4  -0.0812 
 574 CL       4.5324   -10.1137     7.1421 Cl    115 CCL4  -0.0812 
 575 CL       3.8262   -12.0796     5.1162 Cl    115 CCL4  -0.0812 
 576 CL       1.6243   -18.1275    11.9452 Cl    116 CCL4  -0.0812 
 577 C        2.2382   -16.4591    11.8399 C.3   116 CCL4   0.3246 
 578 CL       2.3588   -15.7780    13.4785 Cl    116 CCL4  -0.0812 
 579 CL       1.1438   -15.4516    10.8659 Cl    116 CCL4  -0.0812 
 580 CL       3.8450   -16.4677    11.0811 Cl    116 CCL4  -0.0812 
 581 CL       3.4843    -9.1396    13.4435 Cl    117 CCL4  -0.0812 
 582 C        2.8878   -10.7473    12.9673 C.3   117 CCL4   0.3246 
 583 CL       1.1615   -10.6456    12.5446 Cl    117 CCL4  -0.0812 
 584 CL       3.1288   -11.8772    14.3086 Cl    117 CCL4  -0.0812 
 585 CL       3.7883   -11.3188    11.5471 Cl    117 CCL4  -0.0812 
 586 CL       2.2100    20.9770     4.9813 Cl    118 CCL4  -0.0812 
 587 C        1.9048    19.4705     4.0857 C.3   118 CCL4   0.3246 
 588 CL       2.7411    18.1303     4.9058 Cl    118 CCL4  -0.0812 
 589 CL       2.5404    19.6346     2.4359 Cl    118 CCL4  -0.0812 
 590 CL       0.1556    19.1438     4.0268 Cl    118 CCL4  -0.0812 
 591 CL       1.8252    -1.8492     4.7771 Cl    119 CCL4  -0.0812 
 592 C        1.6364    -0.2683     3.9942 C.3   119 CCL4   0.3246 
 593 CL       1.2360    -0.5832     2.2910 Cl    119 CCL4  -0.0812 
 594 CL       3.1752     0.6060     4.1562 Cl    119 CCL4  -0.0812 
 595 CL       0.3245     0.6474     4.7786 Cl    119 CCL4  -0.0812 
 596 CL      -1.7575   -15.7051     7.9427 Cl    120 CCL4  -0.0812 
 597 C       -0.6229   -16.9849     7.4421 C.3   120 CCL4   0.3246 
 598 CL      -1.3655   -18.0431     6.2185 Cl    120 CCL4  -0.0812 
 599 CL      -0.2090   -17.9699     8.8671 Cl    120 CCL4  -0.0812 
 600 CL       0.8556   -16.2328     6.7858 Cl    120 CCL4  -0.0812 
 601 CL      -0.9208    -1.7263    13.8446 Cl    121 CCL4  -0.0812 
 602 C        0.6894    -1.5264    13.1146 C.3   121 CCL4   0.3246 
 603 CL       1.9349    -1.7172    14.3699 Cl    121 CCL4  -0.0812 
 604 CL       0.8065     0.0960    12.3874 Cl    121 CCL4  -0.0812 
 605 CL       0.9273    -2.7481    11.8411 Cl    121 CCL4  -0.0812 
 606 CL       0.1001   -11.9215     5.2249 Cl    122 CCL4  -0.0812 
 607 C       -1.2945   -11.5381     4.1825 C.3   122 CCL4   0.3246 
 608 CL      -2.7928   -12.0960     4.9603 Cl    122 CCL4  -0.0812 
 609 CL      -1.1019   -12.3475     2.6070 Cl    122 CCL4  -0.0812 
 610 CL      -1.3902    -9.7782     3.9294 Cl    122 CCL4  -0.0812 
 611 CL      -3.9837    -2.2184     7.1338 Cl    123 CCL4  -0.0812 
 612 C       -2.4083    -1.7439     7.8050 C.3   123 CCL4   0.3246 
 613 CL      -2.0256    -2.6966     9.2571 Cl    123 CCL4  -0.0812 
 614 CL      -2.4198    -0.0202     8.2312 Cl    123 CCL4  -0.0812 
 615 CL      -1.1754    -2.0268     6.5606 Cl    123 CCL4  -0.0812 
 616 CL       2.1740   -14.1843    16.6607 Cl    124 CCL4  -0.0812 
 617 C        0.4240   -13.9503    16.4387 C.3   124 CCL4   0.3246 
 618 CL      -0.3899   -15.5216    16.5948 Cl    124 CCL4  -0.0812 
 619 CL       0.0801   -13.2812    14.8274 Cl    124 CCL4  -0.0812 
 620 CL      -0.1920   -12.8567    17.6979 Cl    124 CCL4  -0.0812 
 621 CL      -2.9870   -10.7823    14.2103 Cl    125 CCL4  -0.0812 
 622 C       -3.8872    -9.8068    13.0285 C.3   125 CCL4   0.3246 
 623 CL      -5.5039   -10.5113    12.8183 Cl    125 CCL4  -0.0812 
 624 CL      -3.0222    -9.8287    11.4712 Cl    125 CCL4  -0.0812 
 625 CL      -4.0451    -8.1345    13.6163 Cl    125 CCL4  -0.0812 
 626 CL       0.5801    21.1460    15.8048 Cl    126 CCL4  -0.0812 
 627 C        1.4003    20.5727    17.2756 C.3   126 CCL4   0.3246 
 628 CL       2.4828    19.2273    16.8415 Cl    126 CCL4  -0.0812 
 629 CL       0.1924    20.0065    18.4607 Cl    126 CCL4  -0.0812 
 630 CL       2.3625    21.9032    17.9602 Cl    126 CCL4  -0.0812 
 631 CL      -4.0012     1.1082    17.4617 Cl    127 CCL4  -0.0812 
 632 C       -2.2374     1.0483    17.2226 C.3   127 CCL4   0.3246 
 633 CL      -1.4364     1.8852    18.5704 Cl    127 CCL4  -0.0812 
 634 CL      -1.8058     1.8431    15.6864 Cl    127 CCL4  -0.0812 
 635 CL      -1.6907    -0.6463    17.2010 Cl    127 CCL4  -0.0812 
 636 CL      -3.6881    -9.0133     7.0027 Cl    128 CCL4  -0.0812 
 637 C       -4.2221    -7.3718     6.6121 C.3   128 CCL4   0.3246 
 638 CL      -3.0948    -6.2025     7.3389 Cl    128 CCL4  -0.0812 
 639 CL      -5.8604    -7.0956     7.2425 Cl    128 CCL4  -0.0812 
 640 CL      -4.2184    -7.1663     4.8434 Cl    128 CCL4  -0.0812 
 641 CL       0.5535    -7.0053    16.6177 Cl    129 CCL4  -0.0812 
 642 C       -0.5752    -8.0309    15.7095 C.3   129 CCL4   0.3246 
 643 CL       0.0601    -9.6870    15.6830 Cl    129 CCL4  -0.0812 
 644 CL      -0.7179    -7.4027    14.0531 Cl    129 CCL4  -0.0812 
 645 CL      -2.1543    -7.9995    16.5287 Cl    129 CCL4  -0.0812 
 646 CL      -5.2005    -4.1702     9.6904 Cl    130 CCL4  -0.0812 
 647 C       -5.0998    -5.2598    11.0892 C.3   130 CCL4   0.3246 
 648 CL      -6.6088    -5.1354    12.0214 Cl    130 CCL4  -0.0812 
 649 CL      -3.7344    -4.7648    12.1197 Cl    130 CCL4  -0.0812 
 650 CL      -4.8631    -6.9307    10.5301 Cl    130 CCL4  -0.0812 
 651 CL      -5.4073    -1.2274    12.3212 Cl    131 CCL4  -0.0812 
 652 C       -5.7736    -0.5057    13.9091 C.3   131 CCL4   0.3246 
 653 CL      -4.8859     1.0217    14.0851 Cl    131 CCL4  -0.0812 
 654 CL      -5.2550    -1.6324    15.1836 Cl    131 CCL4  -0.0812 
 655 CL      -7.5242    -0.2152    14.0484 Cl    131 CCL4  -0.0812 
 656 CL      -5.4936    14.7369   -18.7421 Cl    132 CCL4  -0.0812 
 657 C       -5.4277    14.5085   -16.9779 C.3   132 CCL4   0.3246 
 658 CL      -6.9800    14.9703   -16.2463 Cl    132 CCL4  -0.0812 
 659 CL      -4.1541    15.5459   -16.2955 Cl    132 CCL4  -0.0812 
 660 CL      -5.0619    12.8003   -16.6141 Cl    132 CCL4  -0.0812 
 661 CL      -8.7346     4.4991   -12.6628 Cl    133 CCL4  -0.0812 
 662 C       -8.8960     5.3107   -14.2405 C.3   133 CCL4   0.3246 
 663 CL     -10.2763     4.6281   -15.1341 Cl    133 CCL4  -0.0812 
 664 CL      -7.4194     5.0813   -15.1969 Cl    133 CCL4  -0.0812 
 665 CL      -9.1514     7.0524   -13.9851 Cl    133 CCL4  -0.0812 
 666 CL      26.4812    14.1685   -14.7884 Cl    134 CCL4  -0.0812 
 667 C       26.1421    13.5497   -13.1566 C.3   134 CCL4   0.3246 
 668 CL      26.6063    14.7766   -11.9514 Cl    134 CCL4  -0.0812 
 669 CL      27.0827    12.0751   -12.8668 Cl    134 CCL4  -0.0812 
 670 CL      24.4153    13.1689   -13.0125 Cl    134 CCL4  -0.0812 
 671 CL      -8.8178     1.7480     2.4061 Cl    135 CCL4  -0.0812 
 672 C       -7.8323     2.2080     3.8120 C.3   135 CCL4   0.3246 
 673 CL      -7.3563     0.7357     4.6912 Cl    135 CCL4  -0.0812 
 674 CL      -8.7889     3.2682     4.8668 Cl    135 CCL4  -0.0812 
 675 CL      -6.3764     3.0786     3.2834 Cl    135 CCL4  -0.0812 
 676 CL      -7.5263     9.0446     3.0890 Cl    136 CCL4  -0.0812 
 677 C       -8.3619     7.9317     1.9849 C.3   136 CCL4   0.3246 
 678 CL      -7.3840     7.6494     0.5235 Cl    136 CCL4  -0.0812 
 679 CL      -9.9077     8.6787     1.5426 Cl    136 CCL4  -0.0812 
 680 CL      -8.6603     6.3812     2.8019 Cl    136 CCL4  -0.0812 
 681 CL      -9.6670    13.3205   -12.9786 Cl    137 CCL4  -0.0812 
 682 C       -9.2883    11.7695   -13.7645 C.3   137 CCL4   0.3246 
 683 CL      -7.5624    11.7286   -14.1779 Cl    137 CCL4  -0.0812 
 684 CL     -10.2382    11.6067   -15.2573 Cl    137 CCL4  -0.0812 
 685 CL      -9.6605    10.4271   -12.6547 Cl    137 CCL4  -0.0812 
 686 CL      25.5490     4.8831   -15.0550 Cl    138 CCL4  -0.0812 
 687 C       23.9103     4.1921   -15.0382 C.3   138 CCL4   0.3246 
 688 CL      23.9781     2.5594   -15.7456 Cl    138 CCL4  -0.0812 
 689 CL      22.8462     5.2308   -16.0188 Cl    138 CCL4  -0.0812 
 690 CL      23.2914     4.1115   -13.3685 Cl    138 CCL4  -0.0812 
 691 CL     -10.2677     4.7257    -8.1492 Cl    139 CCL4  -0.0812 
 692 C      -10.5921     2.9866    -7.9475 C.3   139 CCL4   0.3246 
 693 CL      -9.1069     2.0782    -8.2992 Cl    139 CCL4  -0.0812 
 694 CL     -11.8791     2.5163    -9.0699 Cl    139 CCL4  -0.0812 
 695 CL     -11.1205     2.6100    -6.2957 Cl    139 CCL4  -0.0812 
 696 CL      27.4924     5.1658   -12.2543 Cl    140 CCL4  -0.0812 
 697 C       26.4963     6.2625   -11.2699 C.3   140 CCL4   0.3246 
 698 CL      27.5131     7.6264   -10.7589 Cl    140 CCL4  -0.0812 
 699 CL      25.9217     5.3690    -9.8465 Cl    140 CCL4  -0.0812 
 700 CL      25.1020     6.8711   -12.2006 Cl    140 CCL4  -0.0812 
 701 CL       6.2419     1.9803    22.5181 Cl    141 CCL4  -0.0812 
 702 C        6.5196     2.1621    20.7698 C.3   141 CCL4   0.3246 
 703 CL       5.4938     1.0406    19.8436 Cl    141 CCL4  -0.0812 
 704 CL       8.2257     1.8333    20.3970 Cl    141 CCL4  -0.0812 
 705 CL       6.1345     3.8218    20.2687 Cl    141 CCL4  -0.0812 
 706 CL     -10.6959    12.5741     1.9364 Cl    142 CCL4  -0.0812 
 707 C      -11.8074    13.0087     0.6190 C.3   142 CCL4   0.3246 
 708 CL     -11.2841    14.5238    -0.1415 Cl    142 CCL4  -0.0812 
 709 CL     -13.4553    13.2170     1.2606 Cl    142 CCL4  -0.0812 
 710 CL     -11.8114    11.7034    -0.5835 Cl    142 CCL4  -0.0812 
 711 CL      -6.1791     8.7249    23.9247 Cl    143 CCL4  -0.0812 
 712 C       -6.6335     8.0662    22.3329 C.3   143 CCL4   0.3246 
 713 CL      -8.4016     7.8490    22.2673 Cl    143 CCL4  -0.0812 
 714 CL      -5.8280     6.4962    22.0886 Cl    143 CCL4  -0.0812 
 715 CL      -6.1099     9.1927    21.0554 Cl    143 CCL4  -0.0812 
 716 CL      -8.8360    15.4846    20.3429 Cl    144 CCL4  -0.0812 
 717 C       -9.7109    14.1981    21.2053 C.3   144 CCL4   0.3246 
 718 CL     -10.3091    14.8197    22.7679 Cl    144 CCL4  -0.0812 
 719 CL      -8.6403    12.8013    21.4824 Cl    144 CCL4  -0.0812 
 720 CL     -11.0939    13.6847    20.2191 Cl    144 CCL4  -0.0812 
 721 CL     -11.8735     8.4215   -16.8867 Cl    145 CCL4  -0.0812 
 722 C      -13.1587     9.0917   -15.8590 C.3   145 CCL4   0.3246 
 723 CL     -13.4347    10.7958   -16.2845 Cl    145 CCL4  -0.0812 
 724 CL     -12.6696     8.9340   -14.1589 Cl    145 CCL4  -0.0812 
 725 CL     -14.6710     8.1909   -16.1185 Cl    145 CCL4  -0.0812 
 726 CL       7.8342    12.4214   -12.3105 Cl    146 CCL4  -0.0812 
 727 C        7.1350    11.6802   -13.7691 C.3   146 CCL4   0.3246 
 728 CL       6.2813    10.1973   -13.2917 Cl    146 CCL4  -0.0812 
 729 CL       8.4183    11.2741   -14.9300 Cl    146 CCL4  -0.0812 
 730 CL       5.9780    12.8019   -14.5132 Cl    146 CCL4  -0.0812 
 731 CL       7.1164     4.2978   -12.1925 Cl    147 CCL4  -0.0812 
 732 C        6.2471     5.8055   -12.5396 C.3   147 CCL4   0.3246 
 733 CL       7.2895     6.8489   -13.5287 Cl    147 CCL4  -0.0812 
 734 CL       5.8349     6.6516   -11.0268 Cl    147 CCL4  -0.0812 
 735 CL       4.7574     5.4347   -13.4372 Cl    147 CCL4  -0.0812 
 736 CL       6.6791    11.5872    -6.7876 Cl    148 CCL4  -0.0812 
 737 C        5.0560    10.9403    -7.1336 C.3   148 CCL4   0.3246 
 738 CL       4.8562    10.7420    -8.8939 Cl    148 CCL4  -0.0812 
 739 CL       3.8323    12.0745    -6.5147 Cl    148 CCL4  -0.0812 
 740 CL       4.8652     9.3627    -6.3299 Cl    148 CCL4  -0.0812 
 741 CL       6.4984     6.0008    23.0451 Cl    149 CCL4  -0.0812 
 742 C        6.2725     7.5011    22.1174 C.3   149 CCL4   0.3246 
 743 CL       6.8231     8.8814    23.0878 Cl    149 CCL4  -0.0812 
 744 CL       4.5520     7.7049    21.7111 Cl    149 CCL4  -0.0812 
 745 CL       7.2146     7.4381    20.6091 Cl    149 CCL4  -0.0812 
 746 CL     -14.0103     7.2991    -4.5904 Cl    150 CCL4  -0.0812 
 747 C      -13.0814     6.7535    -6.0041 C.3   150 CCL4   0.3246 
 748 CL     -13.5980     7.6730    -7.4289 Cl    150 CCL4  -0.0812 
 749 CL     -13.3780     5.0243    -6.2707 Cl    150 CCL4  -0.0812 
 750 CL     -11.3488     7.0500    -5.7307 Cl    150 CCL4  -0.0812 
 751 CL      -6.9743     3.2088    -0.2884 Cl    151 CCL4  -0.0812 
 752 C       -5.5534     2.1349    -0.1954 C.3   151 CCL4   0.3246 
 753 CL      -4.1868     3.0045     0.5551 Cl    151 CCL4  -0.0812 
 754 CL      -5.1101     1.6176    -1.8293 Cl    151 CCL4  -0.0812 
 755 CL      -5.9438     0.6823     0.7604 Cl    151 CCL4  -0.0812 
 756 CL      -6.3063    11.9282    -3.0109 Cl    152 CCL4  -0.0812 
 757 C       -5.9788    11.2935    -1.3840 C.3   152 CCL4   0.3246 
 758 CL      -7.5081    10.9693    -0.5329 Cl    152 CCL4  -0.0812 
 759 CL      -5.0408    12.4807    -0.4560 Cl    152 CCL4  -0.0812 
 760 CL      -5.0477     9.7851    -1.5345 Cl    152 CCL4  -0.0812 
 761 CL       7.9319     6.7017    -7.0525 Cl    153 CCL4  -0.0812 
 762 C        7.4518     5.0333    -7.4306 C.3   153 CCL4   0.3246 
 763 CL       8.1831     4.5165    -8.9637 Cl    153 CCL4  -0.0812 
 764 CL       5.6775     4.9487    -7.5357 Cl    153 CCL4  -0.0812 
 765 CL       8.0259     3.9563    -6.1381 Cl    153 CCL4  -0.0812 
 766 CL      -6.5730    10.9809    -9.1000 Cl    154 CCL4  -0.0812 
 767 C       -6.6387    11.7119    -7.4719 C.3   154 CCL4   0.3246 
 768 CL      -5.1276    12.5828    -7.1149 Cl    154 CCL4  -0.0812 
 769 CL      -6.8837    10.4352    -6.2547 Cl    154 CCL4  -0.0812 
 770 CL      -7.9749    12.8828    -7.4205 Cl    154 CCL4  -0.0812 
 771 CL      -7.4945    16.3322    -8.4470 Cl    155 CCL4  -0.0812 
 772 C       -9.2156    16.7331    -8.6613 C.3   155 CCL4   0.3246 
 773 CL     -10.1694    15.9700    -7.3632 Cl    155 CCL4  -0.0812 
 774 CL      -9.7648    16.1360   -10.2479 Cl    155 CCL4  -0.0812 
 775 CL      -9.4373    18.4978    -8.5876 Cl    155 CCL4  -0.0812 
 776 CL      -3.3362     5.3488    -9.9745 Cl    156 CCL4  -0.0812 
 777 C       -4.6836     5.4043    -8.8255 C.3   156 CCL4   0.3246 
 778 CL      -6.1109     6.0823    -9.6452 Cl    156 CCL4  -0.0812 
 779 CL      -4.2451     6.4483    -7.4556 Cl    156 CCL4  -0.0812 
 780 CL      -5.0713     3.7671    -8.2559 Cl    156 CCL4  -0.0812 
 781 CL      -6.1529     5.4591    -3.9318 Cl    157 CCL4  -0.0812 
 782 C       -7.7536     5.8946    -4.5744 C.3   157 CCL4   0.3246 
 783 CL      -7.5490     6.6943    -6.1540 Cl    157 CCL4  -0.0812 
 784 CL      -8.5458     7.0076    -3.4382 Cl    157 CCL4  -0.0812 
 785 CL      -8.7220     4.4226    -4.7630 Cl    157 CCL4  -0.0812 
 786 CL      -2.1861    14.4267    -5.0759 Cl    158 CCL4  -0.0812 
 787 C       -1.4655    13.0700    -4.1852 C.3   158 CCL4   0.3246 
 788 CL      -2.6820    11.7862    -3.9995 Cl    158 CCL4  -0.0812 
 789 CL      -0.9199    13.6171    -2.5817 Cl    158 CCL4  -0.0812 
 790 CL      -0.0818    12.4288    -5.1003 Cl    158 CCL4  -0.0812 
 791 CL     -12.3732    10.2701    -4.0286 Cl    159 CCL4  -0.0812 
 792 C      -10.8934    11.2271    -4.2488 C.3   159 CCL4   0.3246 
 793 CL     -10.4234    11.1753    -5.9557 Cl    159 CCL4  -0.0812 
 794 CL      -9.5887    10.5370    -3.2617 Cl    159 CCL4  -0.0812 
 795 CL     -11.2185    12.9017    -3.7540 Cl    159 CCL4  -0.0812 
 796 CL       3.8825    14.1189    -2.8766 Cl    160 CCL4  -0.0812 
 797 C        5.4303    13.3512    -2.4555 C.3   160 CCL4   0.3246 
 798 CL       6.7665    14.4154    -2.9529 Cl    160 CCL4  -0.0812 
 799 CL       5.5507    11.7995    -3.3104 Cl    160 CCL4  -0.0812 
 800 CL       5.4713    13.0670    -0.7000 Cl    160 CCL4  -0.0812 
 801 CL       1.7574     4.0884   -10.9703 Cl    161 CCL4  -0.0812 
 802 C        2.7551     2.8340   -10.2021 C.3   161 CCL4   0.3246 
 803 CL       2.4045     2.7334    -8.4622 Cl    161 CCL4  -0.0812 
 804 CL       4.4624     3.2412   -10.4288 Cl    161 CCL4  -0.0812 
 805 CL       2.4435     1.2761   -10.9876 Cl    161 CCL4  -0.0812 
 806 CL     -11.6370     5.3844    -2.7514 Cl    162 CCL4  -0.0812 
 807 C      -11.8180     6.2554    -1.2174 C.3   162 CCL4   0.3246 
 808 CL     -10.8331     5.4499     0.0268 Cl    162 CCL4  -0.0812 
 809 CL     -13.5288     6.2087    -0.7463 Cl    162 CCL4  -0.0812 
 810 CL     -11.3081     7.9449    -1.4250 Cl    162 CCL4  -0.0812 
 811 CL       4.6794    14.5825    -9.1490 Cl    163 CCL4  -0.0812 
 812 C        3.8981    15.8157    -8.1313 C.3   163 CCL4   0.3246 
 813 CL       4.9627    16.2032    -6.7577 Cl    163 CCL4  -0.0812 
 814 CL       2.3374    15.1981    -7.5366 Cl    163 CCL4  -0.0812 
 815 CL       3.6161    17.2788    -9.1028 Cl    163 CCL4  -0.0812 
 816 CL      27.7073    16.5490    -2.7453 Cl    164 CCL4  -0.0812 
 817 C       26.1546    15.8899    -3.3047 C.3   164 CCL4   0.3246 
 818 CL      24.9102    17.1622    -3.3124 Cl    164 CCL4  -0.0812 
 819 CL      25.6514    14.5648    -2.2319 Cl    164 CCL4  -0.0812 
 820 CL      26.3444    15.2659    -4.9596 Cl    164 CCL4  -0.0812 
 821 CL      -5.9415    15.6011    -2.9604 Cl    165 CCL4  -0.0812 
 822 C       -7.6970    15.3983    -2.7639 C.3   165 CCL4   0.3246 
 823 CL      -8.3318    14.5286    -4.1745 Cl    165 CCL4  -0.0812 
 824 CL      -8.4689    16.9925    -2.6553 Cl    165 CCL4  -0.0812 
 825 CL      -8.0281    14.4809    -1.2782 Cl    165 CCL4  -0.0812 
 826 CL      -4.4082    18.4661    -1.3684 Cl    166 CCL4  -0.0812 
 827 C       -3.2971    17.6666    -0.2260 C.3   166 CCL4   0.3246 
 828 CL      -1.6337    17.7096    -0.8604 Cl    166 CCL4  -0.0812 
 829 CL      -3.8039    15.9762     0.0115 Cl    166 CCL4  -0.0812 
 830 CL      -3.3506    18.5161     1.3393 Cl    166 CCL4  -0.0812 
 831 CL      -0.4205    16.7655   -15.5215 Cl    167 CCL4  -0.0812 
 832 C        0.6433    17.8684   -16.4239 C.3   167 CCL4   0.3246 
 833 CL       1.2072    17.0408   -17.8925 Cl    167 CCL4  -0.0812 
 834 CL       2.0401    18.3022   -15.4121 Cl    167 CCL4  -0.0812 
 835 CL      -0.2482    19.3390   -16.8676 Cl    167 CCL4  -0.0812 
 836 CL      -4.1942    11.1001   -13.0800 Cl    168 CCL4  -0.0812 
 837 C       -4.3863     9.4398   -12.4663 C.3   168 CCL4   0.3246 
 838 CL      -3.7409     9.3128   -10.8183 Cl    168 CCL4  -0.0812 
 839 CL      -3.4809     8.3192   -13.5095 Cl    168 CCL4  -0.0812 
 840 CL      -6.1055     8.9839   -12.4452 Cl    168 CCL4  -0.0812 
 841 CL       1.0724    10.8849     1.5774 Cl    169 CCL4  -0.0812 
 842 C        2.6804    10.3135     2.0696 C.3   169 CCL4   0.3246 
 843 CL       2.5240     8.8361     3.0519 Cl    169 CCL4  -0.0812 
 844 CL       3.4721    11.5644     3.0453 Cl    169 CCL4  -0.0812 
 845 CL       3.7237     9.9683     0.6700 Cl    169 CCL4  -0.0812 
 846 CL       2.6430    12.2157    23.5542 Cl    170 CCL4  -0.0812 
 847 C        3.7316    13.0175    22.4035 C.3   170 CCL4   0.3246 
 848 CL       5.1691    12.0052    22.1216 Cl    170 CCL4  -0.0812 
 849 CL       4.2305    14.6081    23.0315 Cl    170 CCL4  -0.0812 
 850 CL       2.8799    13.2543    20.8600 Cl    170 CCL4  -0.0812 
 851 CL       1.6843     7.0383   -14.2843 Cl    171 CCL4  -0.0812 
 852 C        2.2363     8.7189   -14.1001 C.3   171 CCL4   0.3246 
 853 CL       2.6635     9.0106   -12.3975 Cl    171 CCL4  -0.0812 
 854 CL       0.9245     9.8215   -14.5692 Cl    171 CCL4  -0.0812 
 855 CL       3.6488     8.9906   -15.1415 Cl    171 CCL4  -0.0812 
 856 CL       3.9706    15.9674   -12.3539 Cl    172 CCL4  -0.0812 
 857 C        2.7187    14.7319   -12.5651 C.3   172 CCL4   0.3246 
 858 CL       1.3613    15.0580   -11.4646 Cl    172 CCL4  -0.0812 
 859 CL       3.3848    13.1194   -12.2130 Cl    172 CCL4  -0.0812 
 860 CL       2.1336    14.7824   -14.2340 Cl    172 CCL4  -0.0812 
 861 CL      -1.9720    10.2094   -17.7746 Cl    173 CCL4  -0.0812 
 862 C       -1.0507     8.7085   -18.0393 C.3   173 CCL4   0.3246 
 863 CL      -1.7487     7.8200   -19.4177 Cl    173 CCL4  -0.0812 
 864 CL      -1.1599     7.6909   -16.5813 Cl    173 CCL4  -0.0812 
 865 CL       0.6576     9.1060   -18.3635 Cl    173 CCL4  -0.0812 
 866 CL      -3.3277     5.0738   -15.5124 Cl    174 CCL4  -0.0812 
 867 C       -3.3082     4.3144   -13.9069 C.3   174 CCL4   0.3246 
 868 CL      -1.8307     4.7923   -13.0400 Cl    174 CCL4  -0.0812 
 869 CL      -3.3389     2.5438   -14.0901 Cl    174 CCL4  -0.0812 
 870 CL      -4.7399     4.8404   -12.9870 Cl    174 CCL4  -0.0812 
 871 CL       0.8745     0.8263   -16.9523 Cl    175 CCL4  -0.0812 
 872 C        0.7568     2.5733   -16.6547 C.3   175 CCL4   0.3246 
 873 CL       0.7372     2.8776   -14.9048 Cl    175 CCL4  -0.0812 
 874 CL      -0.7332     3.2152   -17.3871 Cl    175 CCL4  -0.0812 
 875 CL       2.1753     3.3721   -17.3685 Cl    175 CCL4  -0.0812 
 876 CL       0.7975    11.1168    -8.6123 Cl    176 CCL4  -0.0812 
 877 C       -0.8219    11.7071    -9.0586 C.3   176 CCL4   0.3246 
 878 CL      -2.0679    10.7446    -8.2260 Cl    176 CCL4  -0.0812 
 879 CL      -1.0015    11.5590   -10.8244 Cl    176 CCL4  -0.0812 
 880 CL      -0.9854    13.4107    -8.5742 Cl    176 CCL4  -0.0812 
 881 CL      -4.0411    13.1988   -10.2848 Cl    177 CCL4  -0.0812 
 882 C       -4.4673    14.6378   -11.2243 C.3   177 CCL4   0.3246 
 883 CL      -6.1976    14.5803   -11.6188 Cl    177 CCL4  -0.0812 
 884 CL      -3.5120    14.6749   -12.7238 Cl    177 CCL4  -0.0812 
 885 CL      -4.1221    16.0967   -10.2699 Cl    177 CCL4  -0.0812 
 886 CL       0.0796     8.2175    -6.9954 Cl    178 CCL4  -0.0812 
 887 C        0.8361     6.9246    -7.9526 C.3   178 CCL4   0.3246 
 888 CL      -0.1957     6.5869    -9.3618 Cl    178 CCL4  -0.0812 
 889 CL       0.9942     5.4735    -6.9493 Cl    178 CCL4  -0.0812 
 890 CL       2.4465     7.4536    -8.5008 Cl    178 CCL4  -0.0812 
 891 CL       1.1606    16.5374     1.5494 Cl    179 CCL4  -0.0812 
 892 C        2.5587    15.5211     1.1242 C.3   179 CCL4   0.3246 
 893 CL       3.5794    16.4034    -0.0320 Cl    179 CCL4  -0.0812 
 894 CL       1.9998    14.0042     0.3832 Cl    179 CCL4  -0.0812 
 895 CL       3.5186    15.1642     2.5754 Cl    179 CCL4  -0.0812 
 896 CL       1.1137     8.2151    -0.6489 Cl    180 CCL4  -0.0812 
 897 C        0.5488     9.3694    -1.8793 C.3   180 CCL4   0.3246 
 898 CL       0.5662     8.5756    -3.4688 Cl    180 CCL4  -0.0812 
 899 CL       1.5961    10.8126    -1.9351 Cl    180 CCL4  -0.0812 
 900 CL      -1.1158     9.8573    -1.4833 Cl    180 CCL4  -0.0812 
 901 CL      -2.1169     2.9306    -2.7950 Cl    181 CCL4  -0.0812 
 902 C       -1.4831     3.6048    -4.3134 C.3   181 CCL4   0.3246 
 903 CL      -0.3157     2.4664    -5.0246 Cl    181 CCL4  -0.0812 
 904 CL      -0.6792     5.1511    -3.9568 Cl    181 CCL4  -0.0812 
 905 CL      -2.8349     3.8886    -5.4325 Cl    181 CCL4  -0.0812 
 906 CL       3.9761     7.8079    -2.8583 Cl    182 CCL4  -0.0812 
 907 C        4.1354     6.0631    -2.5375 C.3   182 CCL4   0.3246 
 908 CL       5.1913     5.8107    -1.1251 Cl    182 CCL4  -0.0812 
 909 CL       4.8457     5.2758    -3.9711 Cl    182 CCL4  -0.0812 
 910 CL       2.5360     5.3428    -2.2286 Cl    182 CCL4  -0.0812 
 911 CL      -2.6529    17.4004    21.1958 Cl    183 CCL4  -0.0812 
 912 C       -3.7590    18.7926    21.2695 C.3   183 CCL4   0.3246 
 913 CL      -3.8957    19.3865    22.9411 Cl    183 CCL4  -0.0812 
 914 CL      -5.3737    18.3219    20.6858 Cl    183 CCL4  -0.0812 
 915 CL      -3.1163    20.0884    20.2363 Cl    183 CCL4  -0.0812 
 916 CL      -3.8515    13.2577     6.7058 Cl    184 CCL4  -0.0812 
 917 C       -4.5067    13.4074     8.3413 C.3   184 CCL4   0.3246 
 918 CL      -5.0961    11.8282     8.9091 Cl    184 CCL4  -0.0812 
 919 CL      -5.8471    14.5690     8.3538 Cl    184 CCL4  -0.0812 
 920 CL      -3.2156    13.9601     9.4282 Cl    184 CCL4  -0.0812 
 921 CL      -8.4637     3.7443    12.6008 Cl    185 CCL4  -0.0812 
 922 C       -8.7395     4.7098    11.1355 C.3   185 CCL4   0.3246 
 923 CL     -10.0565     3.9822    10.1847 Cl    185 CCL4  -0.0812 
 924 CL      -7.2481     4.7889    10.1713 Cl    185 CCL4  -0.0812 
 925 CL      -9.1913     6.3513    11.6276 Cl    185 CCL4  -0.0812 
 926 CL      25.6300    14.6514    11.6773 Cl    186 CCL4  -0.0812 
 927 C       26.4007    13.1052    12.0835 C.3   186 CCL4   0.3246 
 928 CL      26.9711    13.1753    13.7691 Cl    186 CCL4  -0.0812 
 929 CL      27.7839    12.8539    11.0011 Cl    186 CCL4  -0.0812 
 930 CL      25.2361    11.7784    11.8802 Cl    186 CCL4  -0.0812 
 931 CL      -9.4405    11.9445    12.8359 Cl    187 CCL4  -0.0812 
 932 C       -8.4997    10.4710    12.5158 C.3   187 CCL4   0.3246 
 933 CL      -6.7713    10.8380    12.7063 Cl    187 CCL4  -0.0812 
 934 CL      -8.7825     9.9102    10.8468 Cl    187 CCL4  -0.0812 
 935 CL      -8.9727     9.2185    13.6862 Cl    187 CCL4  -0.0812 
 936 CL      25.7666     5.9199     7.7724 Cl    188 CCL4  -0.0812 
 937 C       24.2994     4.9217     7.7262 C.3   188 CCL4   0.3246 
 938 CL      24.7643     3.2068     7.8429 Cl    188 CCL4  -0.0812 
 939 CL      23.4302     5.2047     6.1978 Cl    188 CCL4  -0.0812 
 940 CL      23.2611     5.3590     9.1049 Cl    188 CCL4  -0.0812 
 941 CL     -11.3520     3.6389    16.4441 Cl    189 CCL4  -0.0812 
 942 C      -11.4962     1.9771    17.0642 C.3   189 CCL4   0.3246 
 943 CL     -10.7061     0.8656    15.9216 Cl    189 CCL4  -0.0812 
 944 CL     -13.2117     1.5236    17.2256 Cl    189 CCL4  -0.0812 
 945 CL     -10.6648     1.8697    18.6322 Cl    189 CCL4  -0.0812 
 946 CL      26.5872     4.8987    12.3290 Cl    190 CCL4  -0.0812 
 947 C       26.2820     5.9874    13.7073 C.3   190 CCL4   0.3246 
 948 CL      27.8013     6.7788    14.1844 Cl    190 CCL4  -0.0812 
 949 CL      25.6490     5.0335    15.0672 Cl    190 CCL4  -0.0812 
 950 CL      25.0638     7.1979    13.2405 Cl    190 CCL4  -0.0812 
 951 CL       7.7771     2.6433     7.1730 Cl    191 CCL4  -0.0812 
 952 C        6.4961     1.8912     6.1955 C.3   191 CCL4   0.3246 
 953 CL       5.1426     1.4467     7.2619 Cl    191 CCL4  -0.0812 
 954 CL       7.1427     0.4331     5.4092 Cl    191 CCL4  -0.0812 
 955 CL       5.9373     3.0376     4.9542 Cl    191 CCL4  -0.0812 
 956 CL      -4.3072     9.5614     2.1765 Cl    192 CCL4  -0.0812 
 957 C       -3.6260     8.3711     3.3137 C.3   192 CCL4   0.3246 
 958 CL      -4.4696     6.8152     3.1125 Cl    192 CCL4  -0.0812 
 959 CL      -3.8534     8.9466     4.9822 Cl    192 CCL4  -0.0812 
 960 CL      -1.8873     8.1703     2.9631 Cl    192 CCL4  -0.0812 
 961 CL      -7.0807     9.6420     6.8948 Cl    193 CCL4  -0.0812 
 962 C       -6.9018     7.9229     7.3089 C.3   193 CCL4   0.3246 
 963 CL      -8.3013     7.4212     8.2818 Cl    193 CCL4  -0.0812 
 964 CL      -5.3963     7.6798     8.2269 Cl    193 CCL4  -0.0812 
 965 CL      -6.8658     6.9633     5.8169 Cl    193 CCL4  -0.0812 
 966 CL     -12.9502     7.3342     2.3975 Cl    194 CCL4  -0.0812 
 967 C      -13.0127     6.9134     4.1217 C.3   194 CCL4   0.3246 
 968 CL     -14.2815     7.8808     4.9117 Cl    194 CCL4  -0.0812 
 969 CL     -11.4443     7.2758     4.8872 Cl    194 CCL4  -0.0812 
 970 CL     -13.3801     5.1759     4.3005 Cl    194 CCL4  -0.0812 
 971 CL      -9.1884    14.7524     5.9900 Cl    195 CCL4  -0.0812 
 972 C       -9.9185    13.3936     6.8878 C.3   195 CCL4   0.3246 
 973 CL     -11.3711    13.9813     7.7245 Cl    195 CCL4  -0.0812 
 974 CL      -8.7680    12.7588     8.0887 Cl    195 CCL4  -0.0812 
 975 CL     -10.3721    12.0909     5.7629 Cl    195 CCL4  -0.0812 
 976 CL     -11.7536     7.3218     9.6988 Cl    196 CCL4  -0.0812 
 977 C      -12.5451     8.8432    10.1462 C.3   196 CCL4   0.3246 
 978 CL     -12.0735    10.1016     8.9773 Cl    196 CCL4  -0.0812 
 979 CL     -12.0677     9.3103    11.7941 Cl    196 CCL4  -0.0812 
 980 CL     -14.3117     8.6230    10.0939 Cl    196 CCL4  -0.0812 
 981 CL       7.5465    13.0631    13.7879 Cl    197 CCL4  -0.0812 
 982 C        7.2286    11.4308    13.1544 C.3   197 CCL4   0.3246 
 983 CL       6.3606    10.4717    14.3791 Cl    197 CCL4  -0.0812 
 984 CL       8.7767    10.6516    12.7464 Cl    197 CCL4  -0.0812 
 985 CL       6.2195    11.5645    11.6956 Cl    197 CCL4  -0.0812 
 986 CL       7.8981     5.1870    13.7311 Cl    198 CCL4  -0.0812 
 987 C        6.6777     5.8679    12.6308 C.3   198 CCL4   0.3246 
 988 CL       7.1841     7.4931    12.1185 Cl    198 CCL4  -0.0812 
 989 CL       5.1139     5.9851    13.4732 Cl    198 CCL4  -0.0812 
 990 CL       6.5081     4.8257    11.1970 Cl    198 CCL4  -0.0812 
 991 CL       5.4031     6.3716     6.9025 Cl    199 CCL4  -0.0812 
 992 C        5.5450     8.1263     6.6326 C.3   199 CCL4   0.3246 
 993 CL       6.6761     8.8155     7.8287 Cl    199 CCL4  -0.0812 
 994 CL       3.9436     8.8843     6.8064 Cl    199 CCL4  -0.0812 
 995 CL       6.1546     8.4242     4.9852 Cl    199 CCL4  -0.0812 
 996 CL     -13.9507     6.6894    20.7475 Cl    200 CCL4  -0.0812 
 997 C      -12.8788     5.8462    19.6074 C.3   200 CCL4   0.3246 
 998 CL     -12.8232     6.7423    18.0695 Cl    200 CCL4  -0.0812 
 999 CL     -13.5042     4.2056    19.3437 Cl    200 CCL4  -0.0812 
1000 CL     -11.2440     5.7588    20.2999 Cl    200 CCL4  -0.0812 
1001 CL      -6.7109    10.2818    16.3117 Cl    201 CCL4  -0.0812 
1002 C       -5.7468    11.5153    17.1562 C.3   201 CCL4   0.3246 
1003 CL      -5.6375    12.9710    16.1405 Cl    201 CCL4  -0.0812 
1004 CL      -4.1034    10.9037    17.4606 Cl    201 CCL4  -0.0812 
1005 CL      -6.5298    11.9182    18.6998 Cl    201 CCL4  -0.0812 
1006 CL      -8.4878    15.2835    14.5855 Cl    202 CCL4  -0.0812 
1007 C       -8.7475    15.5029    16.3302 C.3   202 CCL4   0.3246 
1008 CL      -7.2800    16.1888    17.0649 Cl    202 CCL4  -0.0812 
1009 CL      -9.0901    13.9173    17.0647 Cl    202 CCL4  -0.0812 
1010 CL     -10.1264    16.6012    16.5888 Cl    202 CCL4  -0.0812 
1011 CL      -2.6825     7.4381    15.9160 Cl    203 CCL4  -0.0812 
1012 C       -4.3000     6.7754    16.2331 C.3   203 CCL4   0.3246 
1013 CL      -5.4202     7.3144    14.9546 Cl    203 CCL4  -0.0812 
1014 CL      -4.8829     7.3265    17.8259 Cl    203 CCL4  -0.0812 
1015 CL      -4.2016     4.9951    16.2314 Cl    203 CCL4  -0.0812 
1016 CL       2.4423     3.3009    13.5407 Cl    204 CCL4  -0.0812 
1017 C        3.3803     2.2520    14.6307 C.3   204 CCL4   0.3246 
1018 CL       2.2922     1.5232    15.8381 Cl    204 CCL4  -0.0812 
1019 CL       4.6222     3.2073    15.4695 Cl    204 CCL4  -0.0812 
1020 CL       4.1767     0.9763    13.6813 Cl    204 CCL4  -0.0812 
1021 CL     -12.1397    14.8876     4.0697 Cl    205 CCL4  -0.0812 
1022 C      -11.8793    16.5181     3.4216 C.3   205 CCL4   0.3246 
1023 CL     -11.7786    17.6510     4.7877 Cl    205 CCL4  -0.0812 
1024 CL     -13.2587    16.9297     2.3788 Cl    205 CCL4  -0.0812 
1025 CL     -10.3603    16.5731     2.4990 Cl    205 CCL4  -0.0812 
1026 CL      25.7556    16.6589     7.3559 Cl    206 CCL4  -0.0812 
1027 C       26.5091    17.8094     8.4860 C.3   206 CCL4   0.3246 
1028 CL      26.4692    19.4391     7.7620 Cl    206 CCL4  -0.0812 
1029 CL      28.1988    17.3441     8.7802 Cl    206 CCL4  -0.0812 
1030 CL      25.6120    17.8032    10.0210 Cl    206 CCL4  -0.0812 
1031 CL       5.0846    16.3633    16.2290 Cl    207 CCL4  -0.0812 
1032 C        4.3480    15.2301    17.3925 C.3   207 CCL4   0.3246 
1033 CL       4.6483    15.8113    19.0466 Cl    207 CCL4  -0.0812 
1034 CL       5.0778    13.6179    17.1941 Cl    207 CCL4  -0.0812 
1035 CL       2.5931    15.1105    17.1113 Cl    207 CCL4  -0.0812 
1036 CL      -4.8792    13.3555     2.8783 Cl    208 CCL4  -0.0812 
1037 C       -6.3271    13.9032     3.7468 C.3   208 CCL4   0.3246 
1038 CL      -6.8061    12.6455     4.9123 Cl    208 CCL4  -0.0812 
1039 CL      -7.6437    14.1808     2.5825 Cl    208 CCL4  -0.0812 
1040 CL      -5.9583    15.4288     4.5973 Cl    208 CCL4  -0.0812 
1041 CL       1.6482    15.8854     7.5111 Cl    209 CCL4  -0.0812 
1042 C        1.2832    17.3229     8.4961 C.3   209 CCL4   0.3246 
1043 CL       0.3827    18.5190     7.5335 Cl    209 CCL4  -0.0812 
1044 CL       2.7963    18.0504     9.0837 Cl    209 CCL4  -0.0812 
1045 CL       0.2885    16.8377     9.8908 Cl    209 CCL4  -0.0812 
1046 CL      -2.7506    10.7290    11.1950 Cl    210 CCL4  -0.0812 
1047 C       -2.3372     9.7813    12.6365 C.3   210 CCL4   0.3246 
1048 CL      -3.1807    10.4584    14.0488 Cl    210 CCL4  -0.0812 
1049 CL      -0.5789     9.8477    12.8867 Cl    210 CCL4  -0.0812 
1050 CL      -2.8346     8.0899    12.3911 Cl    210 CCL4  -0.0812 
1051 CL       2.9201    12.3527     6.3661 Cl    211 CCL4  -0.0812 
1052 C        4.5627    12.8821     6.8088 C.3   211 CCL4   0.3246 
1053 CL       5.7755    11.7979     6.1035 Cl    211 CCL4  -0.0812 
1054 CL       4.7184    12.9121     8.5855 Cl    211 CCL4  -0.0812 
1055 CL       4.8359    14.5194     6.1801 Cl    211 CCL4  -0.0812 
1056 CL       1.9560     6.9001    11.5976 Cl    212 CCL4  -0.0812 
1057 C        2.7246     8.4400    11.1292 C.3   212 CCL4   0.3246 
1058 CL       3.1133     9.3803    12.5872 Cl    212 CCL4  -0.0812 
1059 CL       1.6189     9.4022    10.1195 Cl    212 CCL4  -0.0812 
1060 CL       4.2227     8.1050    10.2320 Cl    212 CCL4  -0.0812 
1061 CL       3.0119    15.0686    11.2442 Cl    213 CCL4  -0.0812 
1062 C        2.4615    14.3286    12.7665 C.3   213 CCL4   0.3246 
1063 CL       1.3547    12.9850    12.4010 Cl    213 CCL4  -0.0812 
1064 CL       1.6167    15.5440    13.7530 Cl    213 CCL4  -0.0812 
1065 CL       3.8793    13.7054    13.6414 Cl    213 CCL4  -0.0812 
1066 CL      -3.8923     1.7727     5.6040 Cl    214 CCL4  -0.0812 
1067 C       -3.2839     3.4397     5.7526 C.3   214 CCL4   0.3246 
1068 CL      -1.8581     3.4432     6.8131 Cl    214 CCL4  -0.0812 
1069 CL      -4.5414     4.4975     6.4331 Cl    214 CCL4  -0.0812 
1070 CL      -2.8029     4.0155     4.1411 Cl    214 CCL4  -0.0812 
1071 CL      -2.1073     8.8814     8.1448 Cl    215 CCL4  -0.0812 
1072 C       -0.7667     7.9595     7.4239 C.3   215 CCL4   0.3246 
1073 CL      -1.3816     6.9063     6.1307 Cl    215 CCL4  -0.0812 
1074 CL      -0.0327     6.9231     8.6652 Cl    215 CCL4  -0.0812 
1075 CL       0.4198     9.0981     6.7435 Cl    215 CCL4  -0.0812 
1076 CL      -3.1236     4.9268    10.3463 Cl    216 CCL4  -0.0812 
1077 C       -3.1438     3.9607    11.8438 C.3   216 CCL4   0.3246 
1078 CL      -1.9222     4.5886    12.9770 Cl    216 CCL4  -0.0812 
1079 CL      -2.7872     2.2593    11.4624 Cl    216 CCL4  -0.0812 
1080 CL      -4.7506     4.0955    12.5956 Cl    216 CCL4  -0.0812 
1081 CL       0.5103    14.4404     4.2100 Cl    217 CCL4  -0.0812 
1082 C       -1.1416    14.0237     3.7176 C.3   217 CCL4   0.3246 
1083 CL      -1.5598    12.4418     4.4239 Cl    217 CCL4  -0.0812 
1084 CL      -1.2366    13.9030     1.9445 Cl    217 CCL4  -0.0812 
1085 CL      -2.2620    15.2862     4.2845 Cl    217 CCL4  -0.0812 
1086 CL       1.1102     0.9855     8.5113 Cl    218 CCL4  -0.0812 
1087 C        1.4823     2.7068     8.7565 C.3   218 CCL4   0.3246 
1088 CL       2.9623     2.8518     9.7306 Cl    218 CCL4  -0.0812 
1089 CL       0.1484     3.4868     9.6362 Cl    218 CCL4  -0.0812 
1090 CL       1.7244     3.4989     7.1807 Cl    218 CCL4  -0.0812 
1091 CL       2.1410    11.6024    15.7699 Cl    219 CCL4  -0.0812 
1092 C        0.4938    11.4993    16.4338 C.3   219 CCL4   0.3246 
1093 CL      -0.1184     9.8401    16.2515 Cl    219 CCL4  -0.0812 
1094 CL      -0.5813    12.6403    15.5864 Cl    219 CCL4  -0.0812 
1095 CL       0.5296    11.9134    18.1649 Cl    219 CCL4  -0.0812 
1096 CL      -3.0845    14.2056    13.0694 Cl    220 CCL4  -0.0812 
1097 C       -4.3682    15.3902    12.7280 C.3   220 CCL4   0.3246 
1098 CL      -5.7640    14.5511    12.0057 Cl    220 CCL4  -0.0812 
1099 CL      -3.7632    16.6343    11.6044 Cl    220 CCL4  -0.0812 
1100 CL      -4.8738    16.1667    14.2470 Cl    220 CCL4  -0.0812 
1101 CL       1.4176     7.4250    18.3496 Cl    221 CCL4  -0.0812 
1102 C        1.3374     5.8990    17.4379 C.3   221 CCL4   0.3246 
1103 CL       1.4668     6.2534    15.6985 Cl    221 CCL4  -0.0812 
1104 CL      -0.2206     5.1006    17.7628 Cl    221 CCL4  -0.0812 
1105 CL       2.6752     4.8373    17.9434 Cl    221 CCL4  -0.0812 
1106 CL      -2.7755    16.9487     7.7721 Cl    222 CCL4  -0.0812 
1107 C       -3.8144    18.3446     7.4192 C.3   222 CCL4   0.3246 
1108 CL      -3.2726    19.7396     8.3768 Cl    222 CCL4  -0.0812 
1109 CL      -5.5010    17.9809     7.8455 Cl    222 CCL4  -0.0812 
1110 CL      -3.7043    18.7374     5.6884 Cl    222 CCL4  -0.0812 
1111 CL       8.2900    -9.2852   -14.6928 Cl    223 CCL4  -0.0812 
1112 C        7.6941    -7.8665   -13.7971 C.3   223 CCL4   0.3246 
1113 CL       6.1388    -7.3446   -14.4907 Cl    223 CCL4  -0.0812 
1114 CL       8.8727    -6.5480   -13.9412 Cl    223 CCL4  -0.0812 
1115 CL       7.4782    -8.2751   -12.0765 Cl    223 CCL4  -0.0812 
1116 CL      21.4590   -13.3169   -18.0846 Cl    224 CCL4  -0.0812 
1117 C       20.8278   -12.8315   -16.4925 C.3   224 CCL4   0.3246 
1118 CL      20.5530   -14.2741   -15.4842 Cl    224 CCL4  -0.0812 
1119 CL      19.2950   -11.9508   -16.7040 Cl    224 CCL4  -0.0812 
1120 CL      21.9996   -11.7637   -15.6848 Cl    224 CCL4  -0.0812 
1121 CL      18.0146    16.4094   -13.6481 Cl    225 CCL4  -0.0812 
1122 C       17.0718    17.9135   -13.5183 C.3   225 CCL4   0.3246 
1123 CL      15.9310    18.0190   -14.8853 Cl    225 CCL4  -0.0812 
1124 CL      18.1640    19.3175   -13.5647 Cl    225 CCL4  -0.0812 
1125 CL      16.1721    17.9280   -11.9801 Cl    225 CCL4  -0.0812 
1126 CL      11.7374   -10.1682   -12.8291 Cl    226 CCL4  -0.0812 
1127 C       11.9662   -11.9214   -13.0730 C.3   226 CCL4   0.3246 
1128 CL      11.5354   -12.7770   -11.5743 Cl    226 CCL4  -0.0812 
1129 CL      13.6549   -12.2833   -13.4699 Cl    226 CCL4  -0.0812 
1130 CL      10.9344   -12.4750   -14.4110 Cl    226 CCL4  -0.0812 
1131 CL      17.8852   -18.6604     2.8896 Cl    227 CCL4  -0.0812 
1132 C       17.1618   -17.1686     2.2427 C.3   227 CCL4   0.3246 
1133 CL      17.7153   -16.9069     0.5717 Cl    227 CCL4  -0.0812 
1134 CL      17.6340   -15.7919     3.2553 Cl    227 CCL4  -0.0812 
1135 CL      15.3891   -17.3173     2.2874 Cl    227 CCL4  -0.0812 
1136 CL      13.6629    -1.5440   -13.4432 Cl    228 CCL4  -0.0812 
1137 C       14.0086     0.1781   -13.1499 C.3   228 CCL4   0.3246 
1138 CL      13.4047     0.6304   -11.5395 Cl    228 CCL4  -0.0812 
1139 CL      13.2149     1.1541   -14.4008 Cl    228 CCL4  -0.0812 
1140 CL      15.7658     0.4624   -13.2426 Cl    228 CCL4  -0.0812 
1141 CL      17.3728   -13.8747   -14.1268 Cl    229 CCL4  -0.0812 
1142 C       17.0945   -15.3974   -13.2546 C.3   229 CCL4   0.3246 
1143 CL      18.5059   -15.7600   -12.2284 Cl    229 CCL4  -0.0812 
1144 CL      16.8657   -16.7187   -14.4267 Cl    229 CCL4  -0.0812 
1145 CL      15.6516   -15.2248   -12.2283 Cl    229 CCL4  -0.0812 
1146 CL      12.2262    19.4492   -12.5306 Cl    230 CCL4  -0.0812 
1147 C       11.4222    19.8638   -10.9969 C.3   230 CCL4   0.3246 
1148 CL      12.6467    20.4159    -9.8303 Cl    230 CCL4  -0.0812 
1149 CL      10.6076    18.4191   -10.3568 Cl    230 CCL4  -0.0812 
1150 CL      10.2040    21.1355   -11.2600 Cl    230 CCL4  -0.0812 
1151 CL      20.3157     2.7099   -16.2231 Cl    231 CCL4  -0.0812 
1152 C       19.4134     2.0485   -17.6088 C.3   231 CCL4   0.3246 
1153 CL      20.4782     1.0059   -18.5838 Cl    231 CCL4  -0.0812 
1154 CL      18.8235     3.3971   -18.6066 Cl    231 CCL4  -0.0812 
1155 CL      18.0212     1.1123   -17.0180 Cl    231 CCL4  -0.0812 
1156 CL      12.6742     0.0684    20.7117 Cl    232 CCL4  -0.0812 
1157 C       13.2900    -1.2442    21.7417 C.3   232 CCL4   0.3246 
1158 CL      14.6301    -0.6125    22.7243 Cl    232 CCL4  -0.0812 
1159 CL      13.8903    -2.5730    20.7186 Cl    232 CCL4  -0.0812 
1160 CL      12.0048    -1.8381    22.8209 Cl    232 CCL4  -0.0812 
1161 CL      13.8970   -13.1248     2.3164 Cl    233 CCL4  -0.0812 
1162 C       14.1676   -12.9679     0.5623 C.3   233 CCL4   0.3246 
1163 CL      15.3101   -11.6360     0.2499 Cl    233 CCL4  -0.0812 
1164 CL      12.6185   -12.6424    -0.2543 Cl    233 CCL4  -0.0812 
1165 CL      14.8636   -14.4893    -0.0449 Cl    233 CCL4  -0.0812 
1166 CL       6.4872   -13.3406     2.0780 Cl    234 CCL4  -0.0812 
1167 C        8.0227   -13.0509     1.2200 C.3   234 CCL4   0.3246 
1168 CL       9.3591   -13.8656     2.0666 Cl    234 CCL4  -0.0812 
1169 CL       8.3573   -11.3027     1.1510 Cl    234 CCL4  -0.0812 
1170 CL       7.9167   -13.7009    -0.4360 Cl    234 CCL4  -0.0812 
1171 CL      18.1906   -15.4300    21.8808 Cl    235 CCL4  -0.0812 
1172 C       18.1466   -17.1879    21.5943 C.3   235 CCL4   0.3246 
1173 CL      16.5424   -17.8200    22.0364 Cl    235 CCL4  -0.0812 
1174 CL      19.3984   -17.9863    22.5782 Cl    235 CCL4  -0.0812 
1175 CL      18.4410   -17.5204    19.8682 Cl    235 CCL4  -0.0812 
1176 CL      15.5769   -12.3893    21.6156 Cl    236 CCL4  -0.0812 
1177 C       14.5516   -13.8420    21.7158 C.3   236 CCL4   0.3246 
1178 CL      12.8351   -13.3691    21.6383 Cl    236 CCL4  -0.0812 
1179 CL      14.8701   -14.6736    23.2571 Cl    236 CCL4  -0.0812 
1180 CL      14.9199   -14.9310    20.3526 Cl    236 CCL4  -0.0812 
1181 CL      13.5135   -18.0376   -15.7394 Cl    237 CCL4  -0.0812 
1182 C       12.2019   -17.3427   -14.7562 C.3   237 CCL4   0.3246 
1183 CL      11.7295   -15.7593   -15.4072 Cl    237 CCL4  -0.0812 
1184 CL      12.7417   -17.1445   -13.0726 Cl    237 CCL4  -0.0812 
1185 CL      10.7873   -18.4193   -14.8264 Cl    237 CCL4  -0.0812 
1186 CL      10.0701     0.9979   -12.6996 Cl    238 CCL4  -0.0812 
1187 C        8.7224    -0.1050   -13.0632 C.3   238 CCL4   0.3246 
1188 CL       8.4580    -0.1784   -14.8199 Cl    238 CCL4  -0.0812 
1189 CL       7.2437     0.4878   -12.2719 Cl    238 CCL4  -0.0812 
1190 CL       9.0994    -1.7382   -12.4713 Cl    238 CCL4  -0.0812 
1191 CL      11.7161    19.7177    -3.6900 Cl    239 CCL4  -0.0812 
1192 C       12.4214    19.7153    -5.3291 C.3   239 CCL4   0.3246 
1193 CL      11.1712    19.2941    -6.5140 Cl    239 CCL4  -0.0812 
1194 CL      13.7252    18.5052    -5.4392 Cl    239 CCL4  -0.0812 
1195 CL      13.0928    21.3255    -5.6995 Cl    239 CCL4  -0.0812 
1196 CL      21.6472   -11.6627    -2.2421 Cl    240 CCL4  -0.0812 
1197 C       21.1852   -13.1441    -1.3685 C.3   240 CCL4   0.3246 
1198 CL      19.6109   -12.9033    -0.5664 Cl    240 CCL4  -0.0812 
1199 CL      22.4262   -13.4848    -0.1409 Cl    240 CCL4  -0.0812 
1200 CL      21.0852   -14.5096    -2.5106 Cl    240 CCL4  -0.0812 
1201 CL      17.4781   -15.4990    -8.2607 Cl    241 CCL4  -0.0812 
1202 C       18.9881   -14.8248    -7.6063 C.3   241 CCL4   0.3246 
1203 CL      20.3691   -15.6248    -8.3846 Cl    241 CCL4  -0.0812 
1204 CL      19.0473   -15.0582    -5.8459 Cl    241 CCL4  -0.0812 
1205 CL      19.0577   -13.0871    -7.9690 Cl    241 CCL4  -0.0812 
1206 CL      16.9389   -11.0962   -10.0955 Cl    242 CCL4  -0.0812 
1207 C       15.6351   -11.2207    -8.8876 C.3   242 CCL4   0.3246 
1208 CL      16.2805   -10.9921    -7.2430 Cl    242 CCL4  -0.0812 
1209 CL      14.8997   -12.8355    -9.0237 Cl    242 CCL4  -0.0812 
1210 CL      14.4062    -9.9760    -9.2248 Cl    242 CCL4  -0.0812 
1211 CL      21.7027    20.7941   -11.0079 Cl    243 CCL4  -0.0812 
1212 C       20.8113    20.4486    -9.5108 C.3   243 CCL4   0.3246 
1213 CL      19.1703    21.1241    -9.6641 Cl    243 CCL4  -0.0812 
1214 CL      21.6593    21.2029    -8.1400 Cl    243 CCL4  -0.0812 
1215 CL      20.7145    18.6889    -9.2565 Cl    243 CCL4  -0.0812 
1216 CL      15.6653    -0.7988    -4.7487 Cl    244 CCL4  -0.0812 
1217 C       14.4930    -0.7010    -3.4132 C.3   244 CCL4   0.3246 
1218 CL      14.3546    -2.2964    -2.6266 Cl    244 CCL4  -0.0812 
1219 CL      12.8978    -0.2306    -4.0549 Cl    244 CCL4  -0.0812 
1220 CL      15.0504     0.5023    -2.2198 Cl    244 CCL4  -0.0812 
1221 CL      20.6877    22.1676    -4.6533 Cl    245 CCL4  -0.0812 
1222 C       19.4602    20.8793    -4.6855 C.3   245 CCL4   0.3246 
1223 CL      18.0826    21.3668    -5.7028 Cl    245 CCL4  -0.0812 
1224 CL      18.9035    20.5530    -3.0239 Cl    245 CCL4  -0.0812 
1225 CL      20.1931    19.4030    -5.3541 Cl    245 CCL4  -0.0812 
1226 CL      13.6528   -15.5712    -3.3843 Cl    246 CCL4  -0.0812 
1227 C       15.1914   -14.8943    -3.9684 C.3   246 CCL4   0.3246 
1228 CL      15.1596   -14.8231    -5.7416 Cl    246 CCL4  -0.0812 
1229 CL      16.5385   -15.9245    -3.4234 Cl    246 CCL4  -0.0812 
1230 CL      15.4090   -13.2512    -3.3255 Cl    246 CCL4  -0.0812 
1231 CL      12.5409   -15.9789    -9.4164 Cl    247 CCL4  -0.0812 
1232 C       11.1004   -15.9413    -8.3699 C.3   247 CCL4   0.3246 
1233 CL       9.7805   -15.0639    -9.1802 Cl    247 CCL4  -0.0812 
1234 CL      11.4950   -15.1423    -6.8305 Cl    247 CCL4  -0.0812 
1235 CL      10.5599   -17.5944    -8.0198 Cl    247 CCL4  -0.0812 
1236 CL      15.1243    19.4696    -2.4718 Cl    248 CCL4  -0.0812 
1237 C       14.6855    20.0935    -0.8664 C.3   248 CCL4   0.3246 
1238 CL      15.9754    19.6765     0.2810 Cl    248 CCL4  -0.0812 
1239 CL      13.1512    19.3741    -0.3337 Cl    248 CCL4  -0.0812 
1240 CL      14.5061    21.8588    -0.9653 Cl    248 CCL4  -0.0812 
1241 CL      17.1152    -8.7874   -15.9529 Cl    249 CCL4  -0.0812 
1242 C       16.9244    -8.8514   -14.1844 C.3   249 CCL4   0.3246 
1243 CL      16.4599   -10.4919   -13.7067 Cl    249 CCL4  -0.0812 
1244 CL      15.6772    -7.7057   -13.6461 Cl    249 CCL4  -0.0812 
1245 CL      18.4591    -8.4347   -13.4058 Cl    249 CCL4  -0.0812 
1246 CL      16.8626    -2.8353    -8.0417 Cl    250 CCL4  -0.0812 
1247 C       16.5745    -3.3863    -9.7062 C.3   250 CCL4   0.3246 
1248 CL      15.4622    -4.7758    -9.6744 Cl    250 CCL4  -0.0812 
1249 CL      18.1132    -3.8325   -10.4741 Cl    250 CCL4  -0.0812 
1250 CL      15.8464    -2.0613   -10.6303 Cl    250 CCL4  -0.0812 
1251 CL      11.6496    -4.5902   -13.2060 Cl    251 CCL4  -0.0812 
1252 C       11.6475    -4.9438   -11.4653 C.3   251 CCL4   0.3246 
1253 CL      12.5540    -6.4455   -11.1762 Cl    251 CCL4  -0.0812 
1254 CL       9.9763    -5.1465   -10.8833 Cl    251 CCL4  -0.0812 
1255 CL      12.4164    -3.5970   -10.6042 Cl    251 CCL4  -0.0812 
1256 CL      17.4530    -5.3279   -16.0865 Cl    252 CCL4  -0.0812 
1257 C       16.4585    -4.0601   -15.3335 C.3   252 CCL4   0.3246 
1258 CL      16.3277    -4.3289   -13.5781 Cl    252 CCL4  -0.0812 
1259 CL      14.8277    -4.1074   -16.0414 Cl    252 CCL4  -0.0812 
1260 CL      17.1867    -2.4651   -15.6364 Cl    252 CCL4  -0.0812 
1261 CL      10.8572     0.6881    -7.0870 Cl    253 CCL4  -0.0812 
1262 C       11.2606    -0.8832    -7.8259 C.3   253 CCL4   0.3246 
1263 CL      10.6058    -2.2117    -6.8363 Cl    253 CCL4  -0.0812 
1264 CL      13.0313    -1.0460    -7.9531 Cl    253 CCL4  -0.0812 
1265 CL      10.5290    -0.9435    -9.4426 Cl    253 CCL4  -0.0812 
1266 CL      12.1413    -9.5120   -18.4107 Cl    254 CCL4  -0.0812 
1267 C       12.5382    -8.1390   -17.3439 C.3   254 CCL4   0.3246 
1268 CL      11.0658    -7.1992   -16.9987 Cl    254 CCL4  -0.0812 
1269 CL      13.7350    -7.1017   -18.1579 Cl    254 CCL4  -0.0812 
1270 CL      13.2320    -8.7510   -15.8239 Cl    254 CCL4  -0.0812 
1271 CL      20.5274    -3.8458    -2.9872 Cl    255 CCL4  -0.0812 
1272 C       18.7864    -4.1959    -2.9721 C.3   255 CCL4   0.3246 
1273 CL      18.5216    -5.7810    -2.2226 Cl    255 CCL4  -0.0812 
1274 CL      18.1532    -4.2204    -4.6344 Cl    255 CCL4  -0.0812 
1275 CL      17.9601    -2.9098    -2.0680 Cl    255 CCL4  -0.0812 
1276 CL      18.7944    -6.0026    -8.1031 Cl    256 CCL4  -0.0812 
1277 C       18.8580    -7.3724    -9.2325 C.3   256 CCL4   0.3246 
1278 CL      17.3532    -7.4762   -10.1707 Cl    256 CCL4  -0.0812 
1279 CL      19.0484    -8.8586    -8.2813 Cl    256 CCL4  -0.0812 
1280 CL      20.2331    -7.2146   -10.3511 Cl    256 CCL4  -0.0812 
1281 CL      23.1162    -7.1162    -7.0262 Cl    257 CCL4  -0.0812 
1282 C       22.6977    -5.3881    -7.1451 C.3   257 CCL4   0.3246 
1283 CL      22.2541    -4.9918    -8.8135 Cl    257 CCL4  -0.0812 
1284 CL      24.0822    -4.3829    -6.6728 Cl    257 CCL4  -0.0812 
1285 CL      21.3395    -5.0343    -6.0614 Cl    257 CCL4  -0.0812 
1286 CL      13.5352   -10.3319    -2.6494 Cl    258 CCL4  -0.0812 
1287 C       11.9991   -10.5739    -3.5137 C.3   258 CCL4   0.3246 
1288 CL      10.6396   -10.0203    -2.5016 Cl    258 CCL4  -0.0812 
1289 CL      11.7776   -12.2920    -3.9275 Cl    258 CCL4  -0.0812 
1290 CL      12.0614    -9.6173    -5.0099 Cl    258 CCL4  -0.0812 
1291 CL      13.5086    -4.1632    -5.7292 Cl    259 CCL4  -0.0812 
1292 C       12.8628    -5.8114    -5.8960 C.3   259 CCL4   0.3246 
1293 CL      11.9109    -5.9146    -7.3974 Cl    259 CCL4  -0.0812 
1294 CL      11.8308    -6.1822    -4.4953 Cl    259 CCL4  -0.0812 
1295 CL      14.2148    -6.9670    -5.9695 Cl    259 CCL4  -0.0812 
1296 CL      20.9944     0.8039    -7.7699 Cl    260 CCL4  -0.0812 
1297 C       20.5230    -0.3558    -6.5020 C.3   260 CCL4   0.3246 
1298 CL      21.8931    -0.6112    -5.3948 Cl    260 CCL4  -0.0812 
1299 CL      20.0798    -1.9077    -7.2458 Cl    260 CCL4  -0.0812 
1300 CL      19.1311     0.2640    -5.5811 Cl    260 CCL4  -0.0812 
1301 CL      15.2193    -6.0875    -2.4780 Cl    261 CCL4  -0.0812 
1302 C       15.0051    -6.0413    -0.7112 C.3   261 CCL4   0.3246 
1303 CL      15.3177    -7.6513    -0.0254 Cl    261 CCL4  -0.0812 
1304 CL      13.3342    -5.5557    -0.3530 Cl    261 CCL4  -0.0812 
1305 CL      16.1019    -4.8575     0.0342 Cl    261 CCL4  -0.0812 
1306 CL      18.3077    -9.3368    -1.4880 Cl    262 CCL4  -0.0812 
1307 C       18.4269    -9.5066    -3.2564 C.3   262 CCL4   0.3246 
1308 CL      19.9136    -8.7237    -3.8464 Cl    262 CCL4  -0.0812 
1309 CL      17.0252    -8.7355    -4.0269 Cl    262 CCL4  -0.0812 
1310 CL      18.4403   -11.2322    -3.6890 Cl    262 CCL4  -0.0812 
1311 CL       8.5380    -8.0525    -5.4074 Cl    263 CCL4  -0.0812 
1312 C        7.6818    -6.7326    -6.2359 C.3   263 CCL4   0.3246 
1313 CL       8.5632    -5.2063    -6.0035 Cl    263 CCL4  -0.0812 
1314 CL       6.0409    -6.5855    -5.5648 Cl    263 CCL4  -0.0812 
1315 CL       7.5860    -7.0924    -7.9769 Cl    263 CCL4  -0.0812 
1316 CL       9.2714   -11.2976    -6.4552 Cl    264 CCL4  -0.0812 
1317 C       10.1572   -11.0369    -7.9736 C.3   264 CCL4   0.3246 
1318 CL       9.1462   -11.6042    -9.3153 Cl    264 CCL4  -0.0812 
1319 CL      11.6795   -11.9537    -7.9417 Cl    264 CCL4  -0.0812 
1320 CL      10.5202    -9.3085    -8.1983 Cl    264 CCL4  -0.0812 
1321 CL      22.1769    -6.8378    -1.6548 Cl    265 CCL4  -0.0812 
1322 C       21.7763    -6.9709     0.0713 C.3   265 CCL4   0.3246 
1323 CL      23.2079    -6.5320     1.0295 Cl    265 CCL4  -0.0812 
1324 CL      21.3081    -8.6449     0.4479 Cl    265 CCL4  -0.0812 
1325 CL      20.4452    -5.8718     0.4854 Cl    265 CCL4  -0.0812 
1326 CL      23.1453   -14.7962    -6.2714 Cl    266 CCL4  -0.0812 
1327 C       24.5285   -14.7586    -7.3907 C.3   266 CCL4   0.3246 
1328 CL      24.0552   -13.8807    -8.8657 Cl    266 CCL4  -0.0812 
1329 CL      25.0134   -16.4230    -7.7994 Cl    266 CCL4  -0.0812 
1330 CL      25.8920   -13.9119    -6.6166 Cl    266 CCL4  -0.0812 
1331 CL      22.6493   -12.4326   -12.2589 Cl    267 CCL4  -0.0812 
1332 C       21.6926   -10.9678   -11.9624 C.3   267 CCL4   0.3246 
1333 CL      20.0312   -11.2497   -12.5266 Cl    267 CCL4  -0.0812 
1334 CL      22.4137    -9.5772   -12.8158 Cl    267 CCL4  -0.0812 
1335 CL      21.6801   -10.6353   -10.2158 Cl    267 CCL4  -0.0812 
1336 CL      21.5394    -3.5758     2.9914 Cl    268 CCL4  -0.0812 
1337 C       21.0978    -1.9953     2.3058 C.3   268 CCL4   0.3246 
1338 CL      22.5757    -1.0703     1.9633 Cl    268 CCL4  -0.0812 
1339 CL      20.1128    -1.1085     3.4915 Cl    268 CCL4  -0.0812 
1340 CL      20.1620    -2.2170     0.8080 Cl    268 CCL4  -0.0812 
1341 CL      21.8584    -8.6480    22.0346 Cl    269 CCL4  -0.0812 
1342 C       21.7770    -7.1609    21.0556 C.3   269 CCL4   0.3246 
1343 CL      22.8419    -5.8975    21.7145 Cl    269 CCL4  -0.0812 
1344 CL      20.1061    -6.5461    21.0332 Cl    269 CCL4  -0.0812 
1345 CL      22.2845    -7.5300    19.3928 Cl    269 CCL4  -0.0812 
1346 CL      20.9516    -4.2768   -15.8066 Cl    270 CCL4  -0.0812 
1347 C       21.0761    -5.4374   -14.4642 C.3   270 CCL4   0.3246 
1348 CL      19.7206    -5.1735   -13.3507 Cl    270 CCL4  -0.0812 
1349 CL      22.6008    -5.1677   -13.5886 Cl    270 CCL4  -0.0812 
1350 CL      21.0254    -7.0948   -15.0956 Cl    270 CCL4  -0.0812 
1351 CL      22.0392     0.4619   -11.4926 Cl    271 CCL4  -0.0812 
1352 C       20.9158    -0.9135   -11.6193 C.3   271 CCL4   0.3246 
1353 CL      19.3857    -0.5282   -10.8042 Cl    271 CCL4  -0.0812 
1354 CL      21.6508    -2.3392   -10.8610 Cl    271 CCL4  -0.0812 
1355 CL      20.5956    -1.2676   -13.3363 Cl    271 CCL4  -0.0812 
1356 CL       7.4363   -10.2304     9.7119 Cl    272 CCL4  -0.0812 
1357 C        6.9217    -8.8080    10.6471 C.3   272 CCL4   0.3246 
1358 CL       5.2573    -8.3602    10.2112 Cl    272 CCL4  -0.0812 
1359 CL       8.0135    -7.4496    10.2969 Cl    272 CCL4  -0.0812 
1360 CL       6.9931    -9.1899    12.3850 Cl    272 CCL4  -0.0812 
1361 CL      19.2694   -13.4452     6.6281 Cl    273 CCL4  -0.0812 
1362 C       20.0091   -12.8779     8.1401 C.3   273 CCL4   0.3246 
1363 CL      19.6460   -14.0444     9.4334 Cl    273 CCL4  -0.0812 
1364 CL      19.3589   -11.2849     8.5894 Cl    273 CCL4  -0.0812 
1365 CL      21.7703   -12.7654     7.9208 Cl    273 CCL4  -0.0812 
1366 CL      17.5896    18.3798    13.8779 Cl    274 CCL4  -0.0812 
1367 C       17.5433    18.3868    12.0960 C.3   274 CCL4   0.3246 
1368 CL      16.8195    16.8682    11.5067 Cl    274 CCL4  -0.0812 
1369 CL      19.1926    18.5469    11.4518 Cl    274 CCL4  -0.0812 
1370 CL      16.5605    19.7680    11.5418 Cl    274 CCL4  -0.0812 
1371 CL      11.0797   -10.0774    12.0978 Cl    275 CCL4  -0.0812 
1372 C       11.9435   -11.6295    12.2719 C.3   275 CCL4   0.3246 
1373 CL      11.6652   -12.2691    13.9064 Cl    275 CCL4  -0.0812 
1374 CL      13.6862   -11.3731    12.0225 Cl    275 CCL4  -0.0812 
1375 CL      11.3254   -12.7891    11.0720 Cl    275 CCL4  -0.0812 
1376 CL      13.5866    -0.2292    10.7638 Cl    276 CCL4  -0.0812 
1377 C       14.3636     0.5827    12.1428 C.3   276 CCL4   0.3246 
1378 CL      13.4722     0.2106    13.6350 Cl    276 CCL4  -0.0812 
1379 CL      14.3231     2.3388    11.8681 Cl    276 CCL4  -0.0812 
1380 CL      16.0506     0.0305    12.2872 Cl    276 CCL4  -0.0812 
1381 CL      17.5205   -13.6752    12.9539 Cl    277 CCL4  -0.0812 
1382 C       16.4231   -14.8979    12.2730 C.3   277 CCL4   0.3246 
1383 CL      17.3803   -16.2563    11.6432 Cl    277 CCL4  -0.0812 
1384 CL      15.4541   -14.2000    10.9618 Cl    277 CCL4  -0.0812 
1385 CL      15.3376   -15.4902    13.5537 Cl    277 CCL4  -0.0812 
1386 CL      13.8183    17.9076    13.0396 Cl    278 CCL4  -0.0812 
1387 C       13.0736    19.1226    14.1036 C.3   278 CCL4   0.3246 
1388 CL      14.0946    19.3362    15.5463 Cl    278 CCL4  -0.0812 
1389 CL      11.4535    18.5678    14.5760 Cl    278 CCL4  -0.0812 
1390 CL      12.9479    20.6760    13.2404 Cl    278 CCL4  -0.0812 
1391 CL      20.4882     3.3183     8.0660 Cl    279 CCL4  -0.0812 
1392 C       19.5657     1.9089     8.6385 C.3   279 CCL4   0.3246 
1393 CL      19.6959     0.6059     7.4364 Cl    279 CCL4  -0.0812 
1394 CL      17.8573     2.3519     8.8645 Cl    279 CCL4  -0.0812 
1395 CL      20.2395     1.3532    10.1881 Cl    279 CCL4  -0.0812 
1396 CL      12.2199    -0.0191     7.2056 Cl    280 CCL4  -0.0812 
1397 C       13.8642    -0.2830     6.5917 C.3   280 CCL4   0.3246 
1398 CL      14.8778     1.0985     7.0645 Cl    280 CCL4  -0.0812 
1399 CL      13.8222    -0.4166     4.8211 Cl    280 CCL4  -0.0812 
1400 CL      14.5274    -1.7756     7.2873 Cl    280 CCL4  -0.0812 
1401 CL      21.0764   -15.3983     2.3627 Cl    281 CCL4  -0.0812 
1402 C       22.1967   -16.3273     3.3831 C.3   281 CCL4   0.3246 
1403 CL      23.7872   -16.4509     2.5842 Cl    281 CCL4  -0.0812 
1404 CL      21.5400   -17.9597     3.6430 Cl    281 CCL4  -0.0812 
1405 CL      22.3836   -15.4992     4.9507 Cl    281 CCL4  -0.0812 
1406 CL      19.1380   -17.1851     6.1853 Cl    282 CCL4  -0.0812 
1407 C       18.3123   -17.6307     7.6953 C.3   282 CCL4   0.3246 
1408 CL      17.1151   -16.3837     8.1055 Cl    282 CCL4  -0.0812 
1409 CL      19.5117   -17.7814     9.0014 Cl    282 CCL4  -0.0812 
1410 CL      17.4766   -19.1827     7.4733 Cl    282 CCL4  -0.0812 
1411 CL      11.8302   -16.9165     3.1455 Cl    283 CCL4  -0.0812 
1412 C       11.7435   -17.9715     4.5778 C.3   283 CCL4   0.3246 
1413 CL      10.3107   -17.5506     5.5378 Cl    283 CCL4  -0.0812 
1414 CL      13.2098   -17.7683     5.5690 Cl    283 CCL4  -0.0812 
1415 CL      11.5974   -19.6596     4.0434 Cl    283 CCL4  -0.0812 
1416 CL      14.3466   -11.7116     5.9187 Cl    284 CCL4  -0.0812 
1417 C       14.6489   -13.0645     7.0346 C.3   284 CCL4   0.3246 
1418 CL      13.2859   -13.1932     8.1676 Cl    284 CCL4  -0.0812 
1419 CL      16.1529   -12.7452     7.9249 Cl    284 CCL4  -0.0812 
1420 CL      14.8069   -14.5749     6.1034 Cl    284 CCL4  -0.0812 
1421 CL       7.9330   -14.6503     5.3218 Cl    285 CCL4  -0.0812 
1422 C        9.1497   -13.4498     5.8255 C.3   285 CCL4   0.3246 
1423 CL       9.1447   -13.3141     7.6007 Cl    285 CCL4  -0.0812 
1424 CL       8.7722   -11.8664     5.0999 Cl    285 CCL4  -0.0812 
1425 CL      10.7708   -13.9825     5.3130 Cl    285 CCL4  -0.0812 
1426 CL      13.2641   -18.3459     9.3917 Cl    286 CCL4  -0.0812 
1427 C       11.8660   -17.3107     9.7761 C.3   286 CCL4   0.3246 
1428 CL      11.6189   -16.1481     8.4541 Cl    286 CCL4  -0.0812 
1429 CL      12.1864   -16.4136    11.2803 Cl    286 CCL4  -0.0812 
1430 CL      10.3925   -18.2890     9.9751 Cl    286 CCL4  -0.0812 
1431 CL       9.6261     1.9039    11.1826 Cl    287 CCL4  -0.0812 
1432 C        8.2277     0.9979    11.8045 C.3   287 CCL4   0.3246 
1433 CL       6.8701     1.1160    10.6601 Cl    287 CCL4  -0.0812 
1434 CL       7.7410     1.7044    13.3607 Cl    287 CCL4  -0.0812 
1435 CL       8.6807    -0.7019    12.0489 Cl    287 CCL4  -0.0812 
1436 CL      11.4596    20.2119    20.8725 Cl    288 CCL4  -0.0812 
1437 C       12.6277    19.8370    19.5847 C.3   288 CCL4   0.3246 
1438 CL      11.7740    19.2309    18.1485 Cl    288 CCL4  -0.0812 
1439 CL      13.7510    18.5890    20.1736 Cl    288 CCL4  -0.0812 
1440 CL      13.5458    21.3042    19.1693 Cl    288 CCL4  -0.0812 
1441 CL      18.5406   -14.8437    16.3736 Cl    289 CCL4  -0.0812 
1442 C       19.2504   -13.7278    17.5678 C.3   289 CCL4   0.3246 
1443 CL      20.0367   -12.3803    16.7071 Cl    289 CCL4  -0.0812 
1444 CL      20.4471   -14.6012    18.5533 Cl    289 CCL4  -0.0812 
1445 CL      17.9529   -13.1031    18.6131 Cl    289 CCL4  -0.0812 
1446 CL      16.7292   -11.0923    15.6183 Cl    290 CCL4  -0.0812 
1447 C       15.0712   -10.9222    16.2366 C.3   290 CCL4   0.3246 
1448 CL      15.1296   -10.1765    17.8529 Cl    290 CCL4  -0.0812 
1449 CL      14.3147   -12.5281    16.3374 Cl    290 CCL4  -0.0812 
1450 CL      14.1357    -9.8888    15.1304 Cl    290 CCL4  -0.0812 
1451 CL      23.3581    18.9936    17.1646 Cl    291 CCL4  -0.0812 
1452 C       21.9531    20.0456    16.8617 C.3   291 CCL4   0.3246 
1453 CL      21.7544    20.2589    15.1024 Cl    291 CCL4  -0.0812 
1454 CL      22.1948    21.6333    17.6324 Cl    291 CCL4  -0.0812 
1455 CL      20.4960    19.2787    17.5358 Cl    291 CCL4  -0.0812 
1456 CL      10.5562   -15.4844    14.5456 Cl    292 CCL4  -0.0812 
1457 C       10.4410   -16.2252    16.1565 C.3   292 CCL4   0.3246 
1458 CL       8.7284   -16.5068    16.5414 Cl    292 CCL4  -0.0812 
1459 CL      11.1702   -15.1687    17.3880 Cl    292 CCL4  -0.0812 
1460 CL      11.3152   -17.7759    16.1526 Cl    292 CCL4  -0.0812 
1461 CL      17.4777    -8.2535     8.9702 Cl    293 CCL4  -0.0812 
1462 C       16.2300    -8.9030    10.0582 C.3   293 CCL4   0.3246 
1463 CL      14.9906    -9.7314     9.0951 Cl    293 CCL4  -0.0812 
1464 CL      15.4503    -7.5804    10.9516 Cl    293 CCL4  -0.0812 
1465 CL      16.9744   -10.0466    11.1999 Cl    293 CCL4  -0.0812 
1466 CL      15.3159    -3.1058    16.8563 Cl    294 CCL4  -0.0812 
1467 C       16.0037    -3.7197    15.3378 C.3   294 CCL4   0.3246 
1468 CL      15.8250    -5.4925    15.2817 Cl    294 CCL4  -0.0812 
1469 CL      17.7214    -3.2801    15.2397 Cl    294 CCL4  -0.0812 
1470 CL      15.1347    -2.9820    13.9785 Cl    294 CCL4  -0.0812 
1471 CL      12.8104    -5.7661    12.6219 Cl    295 CCL4  -0.0812 
1472 C       11.3854    -5.3266    13.5827 C.3   295 CCL4   0.3246 
1473 CL      11.1873    -6.4902    14.9140 Cl    295 CCL4  -0.0812 
1474 CL       9.9360    -5.3429    12.5528 Cl    295 CCL4  -0.0812 
1475 CL      11.6265    -3.6960    14.2495 Cl    295 CCL4  -0.0812 
1476 CL      16.6073    -4.9849     8.7548 Cl    296 CCL4  -0.0812 
1477 C       16.3728    -3.9036    10.1391 C.3   296 CCL4   0.3246 
1478 CL      17.0836    -4.6120    11.6072 Cl    296 CCL4  -0.0812 
1479 CL      14.6342    -3.6642    10.3956 Cl    296 CCL4  -0.0812 
1480 CL      17.1402    -2.3350     9.7914 Cl    296 CCL4  -0.0812 
1481 CL      18.1772    -4.6832     3.1580 Cl    297 CCL4  -0.0812 
1482 C       17.3905    -4.2856     4.6987 C.3   297 CCL4   0.3246 
1483 CL      16.6097    -5.7437     5.3485 Cl    297 CCL4  -0.0812 
1484 CL      16.1576    -3.0389     4.4097 Cl    297 CCL4  -0.0812 
1485 CL      18.6049    -3.6513     5.8339 Cl    297 CCL4  -0.0812 
1486 CL      11.6045   -10.6194     3.1521 Cl    298 CCL4  -0.0812 
1487 C       12.4984    -9.0923     2.9845 C.3   298 CCL4   0.3246 
1488 CL      12.2588    -8.1278     4.4489 Cl    298 CCL4  -0.0812 
1489 CL      11.8800    -8.2116     1.5635 Cl    298 CCL4  -0.0812 
1490 CL      14.2315    -9.4346     2.7798 Cl    298 CCL4  -0.0812 
1491 CL      12.2178    -3.8123     5.2487 Cl    299 CCL4  -0.0812 
1492 C       12.2016    -4.3027     3.5376 C.3   299 CCL4   0.3246 
1493 CL      12.3076    -2.8550     2.5142 Cl    299 CCL4  -0.0812 
1494 CL      10.6852    -5.1622     3.1839 Cl    299 CCL4  -0.0812 
1495 CL      13.6039    -5.3442     3.1827 Cl    299 CCL4  -0.0812 
1496 CL       9.0835    -2.8195     6.8045 Cl    300 CCL4  -0.0812 
1497 C        9.1999    -2.2882     8.4976 C.3   300 CCL4   0.3246 
1498 CL       7.8144    -2.9290     9.4144 Cl    300 CCL4  -0.0812 
1499 CL       9.1502    -0.5121     8.5391 Cl    300 CCL4  -0.0812 
1500 CL      10.7163    -2.8960     9.2066 Cl    300 CCL4  -0.0812 
1501 CL      11.6707    -9.1282     7.6380 Cl    301 CCL4  -0.0812 
1502 C       11.8230    -7.3894     7.9987 C.3   301 CCL4   0.3246 
1503 CL      10.6047    -6.4600     7.0952 Cl    301 CCL4  -0.0812 
1504 CL      13.4537    -6.8161     7.5738 Cl    301 CCL4  -0.0812 
1505 CL      11.5384    -7.1342     9.7292 Cl    301 CCL4  -0.0812 
1506 CL       7.7608    -8.4375     6.6171 Cl    302 CCL4  -0.0812 
1507 C        7.4623    -7.6392     5.0547 C.3   302 CCL4   0.3246 
1508 CL       5.8947    -8.1784     4.4132 Cl    302 CCL4  -0.0812 
1509 CL       8.7419    -8.0791     3.9048 Cl    302 CCL4  -0.0812 
1510 CL       7.4303    -5.8730     5.2856 Cl    302 CCL4  -0.0812 
1511 CL      20.1140   -12.0891     3.2216 Cl    303 CCL4  -0.0812 
1512 C       18.5770   -11.2547     3.5433 C.3   303 CCL4   0.3246 
1513 CL      17.2527   -12.4303     3.7108 Cl    303 CCL4  -0.0812 
1514 CL      18.2129   -10.1563     2.1936 Cl    303 CCL4  -0.0812 
1515 CL      18.7227   -10.2942     5.0367 Cl    303 CCL4  -0.0812 
1516 CL      18.8076    -7.7993    17.2775 Cl    304 CCL4  -0.0812 
1517 C       19.9540    -7.0827    16.1150 C.3   304 CCL4   0.3246 
1518 CL      19.1293    -6.7961    14.5645 Cl    304 CCL4  -0.0812 
1519 CL      21.3169    -8.2034    15.8589 Cl    304 CCL4  -0.0812 
1520 CL      20.5666    -5.5481    16.7754 Cl    304 CCL4  -0.0812 
1521 CL      17.7292    -0.9247    19.9168 Cl    305 CCL4  -0.0812 
1522 C       18.9883    -2.0890    19.4240 C.3   305 CCL4   0.3246 
1523 CL      20.0611    -1.3368    18.2177 Cl    305 CCL4  -0.0812 
1524 CL      18.2238    -3.5248    18.7082 Cl    305 CCL4  -0.0812 
1525 CL      19.9310    -2.5894    20.8488 Cl    305 CCL4  -0.0812 
1526 CL       8.2794    -8.0556    20.9907 Cl    306 CCL4  -0.0812 
1527 C        8.1991    -6.7491    19.7899 C.3   306 CCL4   0.3246 
1528 CL       9.0879    -5.3307    20.3976 Cl    306 CCL4  -0.0812 
1529 CL       6.4999    -6.3092    19.5103 Cl    306 CCL4  -0.0812 
1530 CL       8.9300    -7.2823    18.2614 Cl    306 CCL4  -0.0812 
1531 CL       8.6095   -10.6944    18.5510 Cl    307 CCL4  -0.0812 
1532 C        9.8482   -11.2781    17.4180 C.3   307 CCL4   0.3246 
1533 CL       9.1343   -12.5656    16.4148 Cl    307 CCL4  -0.0812 
1534 CL      11.2193   -11.9142    18.3568 Cl    307 CCL4  -0.0812 
1535 CL      10.3966    -9.9484    16.3710 Cl    307 CCL4  -0.0812 
1536 CL      21.3783    -2.1601     8.9614 Cl    308 CCL4  -0.0812 
1537 C       23.0349    -1.9115     8.3688 C.3   308 CCL4   0.3246 
1538 CL      24.0788    -3.2434     8.9278 Cl    308 CCL4  -0.0812 
1539 CL      23.6443    -0.3652     9.0095 Cl    308 CCL4  -0.0812 
1540 CL      23.0171    -1.8643     6.5874 Cl    308 CCL4  -0.0812 
1541 CL      27.0434   -15.7911    15.3176 Cl    309 CCL4  -0.0812 
1542 C       25.3375   -16.2810    15.1977 C.3   309 CCL4   0.3246 
1543 CL      25.1548   -17.8294    16.0519 Cl    309 CCL4  -0.0812 
1544 CL      24.8879   -16.5041    13.4895 Cl    309 CCL4  -0.0812 
1545 CL      24.2833   -15.0569    15.9526 Cl    309 CCL4  -0.0812 
1546 CL      23.2852   -10.8977    13.5581 Cl    310 CCL4  -0.0812 
1547 C       21.9115   -11.1217    12.4533 C.3   310 CCL4   0.3246 
1548 CL      21.6644   -12.8571    12.1564 Cl    310 CCL4  -0.0812 
1549 CL      22.2659   -10.3212    10.9016 Cl    310 CCL4  -0.0812 
1550 CL      20.4297   -10.4476    13.1702 Cl    310 CCL4  -0.0812 
1551 CL      22.2400    -8.5942     6.6436 Cl    311 CCL4  -0.0812 
1552 C       21.5695    -7.1822     5.7947 C.3   311 CCL4   0.3246 
1553 CL      22.6768    -5.7895     5.9119 Cl    311 CCL4  -0.0812 
1554 CL      20.0066    -6.7526     6.5299 Cl    311 CCL4  -0.0812 
1555 CL      21.3194    -7.6067     4.0834 Cl    311 CCL4  -0.0812 
1556 CL      19.9651    -5.1174     9.7999 Cl    312 CCL4  -0.0812 
1557 C       20.9732    -6.1412    10.8363 C.3   312 CCL4   0.3246 
1558 CL      20.0961    -7.6460    11.1854 Cl    312 CCL4  -0.0812 
1559 CL      21.3373    -5.2875    12.3481 Cl    312 CCL4  -0.0812 
1560 CL      22.4915    -6.4892     9.9809 Cl    312 CCL4  -0.0812 
1561 CL      22.3844    -1.7024    12.3592 Cl    313 CCL4  -0.0812 
1562 C       20.9173    -1.6518    13.3649 C.3   313 CCL4   0.3246 
1563 CL      20.6199     0.0263    13.8731 Cl    313 CCL4  -0.0812 
1564 CL      21.1617    -2.6592    14.8084 Cl    313 CCL4  -0.0812 
1565 CL      19.5305    -2.2408    12.4265 Cl    313 CCL4  -0.0812 
1566 CL       8.4162    15.2912   -14.4112 Cl    314 CCL4  -0.0812 
1567 C        7.7868    16.7128   -13.5523 C.3   314 CCL4   0.3246 
1568 CL       6.3193    17.2964   -14.3687 Cl    314 CCL4  -0.0812 
1569 CL       9.0176    17.9932   -13.6004 Cl    314 CCL4  -0.0812 
1570 CL       7.4482    16.2813   -11.8600 Cl    314 CCL4  -0.0812 
1571 CL      19.9330    13.0484   -17.0896 Cl    315 CCL4  -0.0812 
1572 C       21.3005    13.4098   -16.0062 C.3   315 CCL4   0.3246 
1573 CL      22.5256    12.1225   -16.1679 Cl    315 CCL4  -0.0812 
1574 CL      20.7145    13.4704   -14.3250 Cl    315 CCL4  -0.0812 
1575 CL      22.0237    14.9778   -16.4373 Cl    315 CCL4  -0.0812 
1576 CL      18.5840     4.3947   -12.4889 Cl    316 CCL4  -0.0812 
1577 C       17.5692     5.3131   -13.6287 C.3   316 CCL4   0.3246 
1578 CL      16.6036     4.1738   -14.6005 Cl    316 CCL4  -0.0812 
1579 CL      18.6057     6.2867   -14.6960 Cl    316 CCL4  -0.0812 
1580 CL      16.4906     6.3837   -12.7042 Cl    316 CCL4  -0.0812 
1581 CL      13.0089    14.8540   -14.0356 Cl    317 CCL4  -0.0812 
1582 C       12.3242    13.7937   -12.7812 C.3   317 CCL4   0.3246 
1583 CL      11.5170    14.7839   -11.5405 Cl    317 CCL4  -0.0812 
1584 CL      13.6330    12.8458   -12.0475 Cl    317 CCL4  -0.0812 
1585 CL      11.1464    12.6873   -13.5095 Cl    317 CCL4  -0.0812 
1586 CL      15.5709     1.9919     1.5173 Cl    318 CCL4  -0.0812 
1587 C       15.9639     2.5596     3.1537 C.3   318 CCL4   0.3246 
1588 CL      16.8462     1.2751     4.0146 Cl    318 CCL4  -0.0812 
1589 CL      14.4627     2.9744     4.0193 Cl    318 CCL4  -0.0812 
1590 CL      17.0156     3.9901     3.0603 Cl    318 CCL4  -0.0812 
1591 CL      17.8217     7.5773     3.5723 Cl    319 CCL4  -0.0812 
1592 C       16.4614     8.2060     2.6173 C.3   319 CCL4   0.3246 
1593 CL      16.8165     8.0304     0.8827 Cl    319 CCL4  -0.0812 
1594 CL      16.2378     9.9319     2.9756 Cl    319 CCL4  -0.0812 
1595 CL      14.9873     7.3207     3.0551 Cl    319 CCL4  -0.0812 
1596 CL      16.7981    11.9044   -13.4444 Cl    320 CCL4  -0.0812 
1597 C       16.7487    10.1635   -13.0903 C.3   320 CCL4   0.3246 
1598 CL      18.3607     9.6370   -12.5424 Cl    320 CCL4  -0.0812 
1599 CL      16.3033     9.2792   -14.5678 Cl    320 CCL4  -0.0812 
1600 CL      15.5492     9.8426   -11.8149 Cl    320 CCL4  -0.0812 
1601 CL      11.6789     4.1978   -15.5506 Cl    321 CCL4  -0.0812 
1602 C       10.2598     3.4004   -16.2539 C.3   321 CCL4   0.3246 
1603 CL      10.6984     1.7623   -16.7842 Cl    321 CCL4  -0.0812 
1604 CL       9.6743     4.3435   -17.6386 Cl    321 CCL4  -0.0812 
1605 CL       8.9627     3.3224   -15.0442 Cl    321 CCL4  -0.0812 
1606 CL      17.8460     3.6414    -8.1020 Cl    322 CCL4  -0.0812 
1607 C       16.5802     2.4808    -8.5698 C.3   322 CCL4   0.3246 
1608 CL      17.2232     0.8278    -8.5103 Cl    322 CCL4  -0.0812 
1609 CL      16.0523     2.8342   -10.2274 Cl    322 CCL4  -0.0812 
1610 CL      15.1905     2.5909    -7.4592 Cl    322 CCL4  -0.0812 
1611 CL      13.6933     4.0127   -12.4234 Cl    323 CCL4  -0.0812 
1612 C       12.5249     4.7264   -11.2915 C.3   323 CCL4   0.3246 
1613 CL      13.2343     6.1969   -10.5793 Cl    323 CCL4  -0.0812 
1614 CL      12.1431     3.5643   -10.0021 Cl    323 CCL4  -0.0812 
1615 CL      11.0352     5.1207   -12.1823 Cl    323 CCL4  -0.0812 
1616 CL      14.6235    13.2855     2.8443 Cl    324 CCL4  -0.0812 
1617 C       14.3148    13.4306     1.1000 C.3   324 CCL4   0.3246 
1618 CL      15.5819    14.4260     0.3382 Cl    324 CCL4  -0.0812 
1619 CL      12.7421    14.2093     0.8617 Cl    324 CCL4  -0.0812 
1620 CL      14.3064    11.8154     0.3498 Cl    324 CCL4  -0.0812 
1621 CL       7.4178    14.6574     3.0105 Cl    325 CCL4  -0.0812 
1622 C        8.3333    13.5032     2.0056 C.3   325 CCL4   0.3246 
1623 CL       9.9941    13.3522     2.6196 Cl    325 CCL4  -0.0812 
1624 CL       8.4127    14.1097     0.3382 Cl    325 CCL4  -0.0812 
1625 CL       7.5392    11.9116     2.0430 Cl    325 CCL4  -0.0812 
1626 CL      17.1892     8.9630    21.6369 Cl    326 CCL4  -0.0812 
1627 C       17.7751     7.2968    21.4096 C.3   326 CCL4   0.3246 
1628 CL      16.7380     6.1810    22.3222 Cl    326 CCL4  -0.0812 
1629 CL      19.4552     7.1712    21.9809 Cl    326 CCL4  -0.0812 
1630 CL      17.7080     6.8773    19.6820 Cl    326 CCL4  -0.0812 
1631 CL      16.9384    15.0075    22.3697 Cl    327 CCL4  -0.0812 
1632 C       15.5386    13.9886    21.9644 C.3   327 CCL4   0.3246 
1633 CL      14.1476    15.0319    21.5740 Cl    327 CCL4  -0.0812 
1634 CL      15.1245    12.9523    23.3520 Cl    327 CCL4  -0.0812 
1635 CL      15.9168    12.9574    20.5628 Cl    327 CCL4  -0.0812 
1636 CL      13.4944     7.1084   -16.0909 Cl    328 CCL4  -0.0812 
1637 C       12.4401     8.2784   -15.2589 C.3   328 CCL4   0.3246 
1638 CL      12.9044     9.9367   -15.7245 Cl    328 CCL4  -0.0812 
1639 CL      12.6163     8.0893   -13.4993 Cl    328 CCL4  -0.0812 
1640 CL      10.7396     7.9859   -15.7075 Cl    328 CCL4  -0.0812 
1641 CL      12.0188     6.6684    -4.3073 Cl    329 CCL4  -0.0812 
1642 C       12.5735     5.3823    -5.4137 C.3   329 CCL4   0.3246 
1643 CL      11.5662     5.3935    -6.8808 Cl    329 CCL4  -0.0812 
1644 CL      12.4567     3.7900    -4.6280 Cl    329 CCL4  -0.0812 
1645 CL      14.2651     5.6932    -5.8664 Cl    329 CCL4  -0.0812 
1646 CL      21.3729     3.2866    -1.2323 Cl    330 CCL4  -0.0812 
1647 C       19.9557     2.4188    -0.5982 C.3   330 CCL4   0.3246 
1648 CL      20.3713     1.6600     0.9575 Cl    330 CCL4  -0.0812 
1649 CL      19.4601     1.1651    -1.7640 Cl    330 CCL4  -0.0812 
1650 CL      18.6153     3.5665    -0.3564 Cl    330 CCL4  -0.0812 
1651 CL      21.1723    12.8986    -2.4332 Cl    331 CCL4  -0.0812 
1652 C       20.6515    12.0701    -0.9484 C.3   331 CCL4   0.3246 
1653 CL      18.9596    12.4667    -0.5985 Cl    331 CCL4  -0.0812 
1654 CL      21.6788    12.5783     0.4135 Cl    331 CCL4  -0.0812 
1655 CL      20.8087    10.3149    -1.2033 Cl    331 CCL4  -0.0812 
1656 CL      18.7419    10.4138    -7.9191 Cl    332 CCL4  -0.0812 
1657 C       19.2970    11.4206    -6.5576 C.3   332 CCL4   0.3246 
1658 CL      20.9850    11.9095    -6.8425 Cl    332 CCL4  -0.0812 
1659 CL      19.1923    10.4918    -5.0379 Cl    332 CCL4  -0.0812 
1660 CL      18.2881    12.8748    -6.4375 Cl    332 CCL4  -0.0812 
1661 CL      16.1970    12.8903    -9.0994 Cl    333 CCL4  -0.0812 
1662 C       14.7981    13.7370    -8.4053 C.3   333 CCL4   0.3246 
1663 CL      15.0976    14.1686    -6.7036 Cl    333 CCL4  -0.0812 
1664 CL      13.3964    12.6527    -8.5049 Cl    333 CCL4  -0.0812 
1665 CL      14.5016    15.2146    -9.3537 Cl    333 CCL4  -0.0812 
1666 CL      22.9538     7.0625    -8.9616 Cl    334 CCL4  -0.0812 
1667 C       21.3183     6.4015    -9.2011 C.3   334 CCL4   0.3246 
1668 CL      20.4750     7.3462   -10.4491 Cl    334 CCL4  -0.0812 
1669 CL      20.4097     6.4938    -7.6782 Cl    334 CCL4  -0.0812 
1670 CL      21.4258     4.7082    -9.7374 Cl    334 CCL4  -0.0812 
1671 CL      19.4414     5.6887    -3.3530 Cl    335 CCL4  -0.0812 
1672 C       17.8362     5.4727    -4.0888 C.3   335 CCL4   0.3246 
1673 CL      17.6749     6.5796    -5.4734 Cl    335 CCL4  -0.0812 
1674 CL      16.5756     5.8514    -2.8923 Cl    335 CCL4  -0.0812 
1675 CL      17.6536     3.7838    -4.6271 Cl    335 CCL4  -0.0812 
1676 CL      12.9522    10.1897    -3.7378 Cl    336 CCL4  -0.0812 
1677 C       14.6957    10.5305    -3.8367 C.3   336 CCL4   0.3246 
1678 CL      15.2168    10.4565    -5.5377 Cl    336 CCL4  -0.0812 
1679 CL      15.5981     9.3236    -2.8862 Cl    336 CCL4  -0.0812 
1680 CL      15.0229    12.1518    -3.1821 Cl    336 CCL4  -0.0812 
1681 CL      11.5710     9.7492   -10.0236 Cl    337 CCL4  -0.0812 
1682 C       10.3337     8.9303    -9.0401 C.3   337 CCL4   0.3246 
1683 CL       8.8121     9.8472    -9.1078 Cl    337 CCL4  -0.0812 
1684 CL      10.8940     8.8323    -7.3504 Cl    337 CCL4  -0.0812 
1685 CL      10.0420     7.3035    -9.6976 Cl    337 CCL4  -0.0812 
1686 CL      14.9770     5.1861     0.2293 Cl    338 CCL4  -0.0812 
1687 C       13.3638     5.8963     0.0086 C.3   338 CCL4   0.3246 
1688 CL      12.4136     5.7136     1.5022 Cl    338 CCL4  -0.0812 
1689 CL      12.5274     5.0416    -1.3029 Cl    338 CCL4  -0.0812 
1690 CL      13.5181     7.6170    -0.4049 Cl    338 CCL4  -0.0812 
1691 CL      13.5103    16.3146    -2.1840 Cl    339 CCL4  -0.0812 
1692 C       11.9117    15.5937    -2.4902 C.3   339 CCL4   0.3246 
1693 CL      10.7541    16.1520    -1.2633 Cl    339 CCL4  -0.0812 
1694 CL      12.0427    13.8182    -2.4480 Cl    339 CCL4  -0.0812 
1695 CL      11.3307    16.0918    -4.0937 Cl    339 CCL4  -0.0812 
1696 CL      19.7657    16.2032    -2.0480 Cl    340 CCL4  -0.0812 
1697 C       18.8522    15.7763    -3.5166 C.3   340 CCL4   0.3246 
1698 CL      19.9793    15.5754    -4.8734 Cl    340 CCL4  -0.0812 
1699 CL      17.6984    17.0779    -3.8875 Cl    340 CCL4  -0.0812 
1700 CL      17.9467    14.2713    -3.2536 Cl    340 CCL4  -0.0812 
1701 CL       8.7543    14.9708    -6.7676 Cl    341 CCL4  -0.0812 
1702 C       10.2628    14.2196    -7.3399 C.3   341 CCL4   0.3246 
1703 CL       9.9293    13.2743    -8.8140 Cl    341 CCL4  -0.0812 
1704 CL      10.8998    13.1328    -6.0811 Cl    341 CCL4  -0.0812 
1705 CL      11.4504    15.5013    -7.6871 Cl    341 CCL4  -0.0812 
1706 CL      22.6502    19.4609    -1.4346 Cl    342 CCL4  -0.0812 
1707 C       22.1780    20.1836     0.1205 C.3   342 CCL4   0.3246 
1708 CL      23.4722    19.9366     1.3158 Cl    342 CCL4  -0.0812 
1709 CL      20.6717    19.4249     0.6854 Cl    342 CCL4  -0.0812 
1710 CL      21.9110    21.9271    -0.1173 Cl    342 CCL4  -0.0812 
1711 CL      26.0492    11.1579    -7.2123 Cl    343 CCL4  -0.0812 
1712 C       26.0981    11.6413    -8.9219 C.3   343 CCL4   0.3246 
1713 CL      25.4223    10.3431    -9.9304 Cl    343 CCL4  -0.0812 
1714 CL      27.7826    11.9625    -9.3955 Cl    343 CCL4  -0.0812 
1715 CL      25.1235    13.1149    -9.1243 Cl    343 CCL4  -0.0812 
1716 CL      23.7164    17.9834   -11.0402 Cl    344 CCL4  -0.0812 
1717 C       22.8779    16.9932   -12.2459 C.3   344 CCL4   0.3246 
1718 CL      22.4727    15.4435   -11.4786 Cl    344 CCL4  -0.0812 
1719 CL      23.9376    16.7333   -13.6500 Cl    344 CCL4  -0.0812 
1720 CL      21.3758    17.7831   -12.7578 Cl    344 CCL4  -0.0812 
1721 CL       8.5594     9.2814    -3.7762 Cl    345 CCL4  -0.0812 
1722 C        8.8776    10.1031    -2.2286 C.3   345 CCL4   0.3246 
1723 CL       9.0761    11.8432    -2.5356 Cl    345 CCL4  -0.0812 
1724 CL       7.5206     9.8406    -1.1069 Cl    345 CCL4  -0.0812 
1725 CL      10.3585     9.4532    -1.4897 Cl    345 CCL4  -0.0812 
1726 CL      21.4362     2.9963    -4.8742 Cl    346 CCL4  -0.0812 
1727 C       23.1065     3.5510    -5.1011 C.3   346 CCL4   0.3246 
1728 CL      24.2178     2.1721    -4.9182 Cl    346 CCL4  -0.0812 
1729 CL      23.5006     4.7845    -3.8816 Cl    346 CCL4  -0.0812 
1730 CL      23.2668     4.2648    -6.7187 Cl    346 CCL4  -0.0812 
1731 CL      19.9456    16.2185    20.7083 Cl    347 CCL4  -0.0812 
1732 C       19.6442    17.7909    21.4884 C.3   347 CCL4   0.3246 
1733 CL      19.4598    17.5672    23.2452 Cl    347 CCL4  -0.0812 
1734 CL      18.1695    18.5221    20.8128 Cl    347 CCL4  -0.0812 
1735 CL      21.0198    18.8802    21.1893 Cl    347 CCL4  -0.0812 
1736 CL       7.8552    14.7435    10.4576 Cl    348 CCL4  -0.0812 
1737 C        7.8412    16.3281    11.2572 C.3   348 CCL4   0.3246 
1738 CL       6.5433    16.3478    12.4725 Cl    348 CCL4  -0.0812 
1739 CL       7.5574    17.5926    10.0378 Cl    348 CCL4  -0.0812 
1740 CL       9.4060    16.6113    12.0520 Cl    348 CCL4  -0.0812 
1741 CL      20.8824    12.5844     7.5157 Cl    349 CCL4  -0.0812 
1742 C       21.1747    13.1396     9.1769 C.3   349 CCL4   0.3246 
1743 CL      20.7601    11.8300    10.3060 Cl    349 CCL4  -0.0812 
1744 CL      20.1542    14.5528     9.5305 Cl    349 CCL4  -0.0812 
1745 CL      22.8984    13.5514     9.3456 Cl    349 CCL4  -0.0812 
1746 CL      17.6542     3.3473    12.5401 Cl    350 CCL4  -0.0812 
1747 C       17.5888     4.9432    11.7560 C.3   350 CCL4   0.3246 
1748 CL      16.1673     5.0618    10.6892 Cl    350 CCL4  -0.0812 
1749 CL      19.0624     5.1854    10.7874 Cl    350 CCL4  -0.0812 
1750 CL      17.4912     6.2104    13.0009 Cl    350 CCL4  -0.0812 
1751 CL      13.5108    14.3759    12.0411 Cl    351 CCL4  -0.0812 
1752 C       12.3437    13.1707    12.6334 C.3   351 CCL4   0.3246 
1753 CL      12.0511    13.4074    14.3704 Cl    351 CCL4  -0.0812 
1754 CL      12.9829    11.5321    12.3603 Cl    351 CCL4  -0.0812 
1755 CL      10.8074    13.3622    11.7663 Cl    351 CCL4  -0.0812 
1756 CL      17.1862    12.0494    11.8997 Cl    352 CCL4  -0.0812 
1757 C       17.0639    10.3425    12.3944 C.3   352 CCL4   0.3246 
1758 CL      18.6927     9.6843    12.6979 Cl    352 CCL4  -0.0812 
1759 CL      16.2689     9.4007    11.1095 Cl    352 CCL4  -0.0812 
1760 CL      16.1034    10.2379    13.8917 Cl    352 CCL4  -0.0812 
1761 CL      16.4108     3.7697    16.6038 Cl    353 CCL4  -0.0812 
1762 C       15.7905     2.2409    17.2709 C.3   353 CCL4   0.3246 
1763 CL      16.7578     0.8835    16.6375 Cl    353 CCL4  -0.0812 
1764 CL      14.0919     2.0377    16.7717 Cl    353 CCL4  -0.0812 
1765 CL      15.8887     2.2722    19.0479 Cl    353 CCL4  -0.0812 
1766 CL      11.7083     4.7510    12.3550 Cl    354 CCL4  -0.0812 
1767 C       11.8313     6.0083    13.6049 C.3   354 CCL4   0.3246 
1768 CL      13.5450     6.4247    13.8604 Cl    354 CCL4  -0.0812 
1769 CL      11.1216     5.4109    15.1224 Cl    354 CCL4  -0.0812 
1770 CL      10.9592     7.4476    13.0293 Cl    354 CCL4  -0.0812 
1771 CL      20.7477     9.5560     2.1941 Cl    355 CCL4  -0.0812 
1772 C       22.4567     9.2188     2.5645 C.3   355 CCL4   0.3246 
1773 CL      23.4693     9.6178     1.1581 Cl    355 CCL4  -0.0812 
1774 CL      22.6475     7.4918     2.9422 Cl    355 CCL4  -0.0812 
1775 CL      22.9827    10.1861     3.9627 Cl    355 CCL4  -0.0812 
1776 CL      18.9862     9.5534     6.3687 Cl    356 CCL4  -0.0812 
1777 C       18.4420     8.2274     7.4278 C.3   356 CCL4   0.3246 
1778 CL      16.6647     8.2030     7.5008 Cl    356 CCL4  -0.0812 
1779 CL      19.1031     8.4759     9.0587 Cl    356 CCL4  -0.0812 
1780 CL      19.0236     6.6699     6.7878 Cl    356 CCL4  -0.0812 
1781 CL      10.5042     8.3138     3.1048 Cl    357 CCL4  -0.0812 
1782 C       11.1968     8.9182     4.6298 C.3   357 CCL4   0.3246 
1783 CL       9.8991     9.1781     5.8178 Cl    357 CCL4  -0.0812 
1784 CL      12.0482    10.4504     4.3225 Cl    357 CCL4  -0.0812 
1785 CL      12.3486     7.7367     5.2858 Cl    357 CCL4  -0.0812 
1786 CL      15.1585    14.3965     7.6250 Cl    358 CCL4  -0.0812 
1787 C       15.6014    12.6766     7.7698 C.3   358 CCL4   0.3246 
1788 CL      14.4999    11.8853     8.9246 Cl    358 CCL4  -0.0812 
1789 CL      17.2709    12.5476     8.3663 Cl    358 CCL4  -0.0812 
1790 CL      15.4810    11.8730     6.1860 Cl    358 CCL4  -0.0812 
1791 CL       9.2077    12.5344     5.7184 Cl    359 CCL4  -0.0812 
1792 C        9.9893    13.4391     7.0286 C.3   359 CCL4   0.3246 
1793 CL       9.8938    12.4668     8.5150 Cl    359 CCL4  -0.0812 
1794 CL       9.1388    14.9911     7.2412 Cl    359 CCL4  -0.0812 
1795 CL      11.6987    13.7207     6.6142 Cl    359 CCL4  -0.0812 
1796 CL      11.5993     6.8124    20.7790 Cl    360 CCL4  -0.0812 
1797 C       11.5532     5.8108    19.3063 C.3   360 CCL4   0.3246 
1798 CL       9.9084     5.7896    18.6270 Cl    360 CCL4  -0.0812 
1799 CL      12.0496     4.1441    19.6965 Cl    360 CCL4  -0.0812 
1800 CL      12.6811     6.4963    18.1083 Cl    360 CCL4  -0.0812 
1801 CL      17.7826    10.5917    18.2094 Cl    361 CCL4  -0.0812 
1802 C       19.4081    11.2392    18.5428 C.3   361 CCL4   0.3246 
1803 CL      20.2959    11.4841    17.0173 Cl    361 CCL4  -0.0812 
1804 CL      20.2879    10.0886    19.5763 Cl    361 CCL4  -0.0812 
1805 CL      19.2563    12.7986    19.3843 Cl    361 CCL4  -0.0812 
1806 CL      17.3037    14.1892    16.6128 Cl    362 CCL4  -0.0812 
1807 C       15.5945    14.6542    16.7574 C.3   362 CCL4   0.3246 
1808 CL      15.3866    15.7064    18.1784 Cl    362 CCL4  -0.0812 
1809 CL      14.6076    13.1840    16.9410 Cl    362 CCL4  -0.0812 
1810 CL      15.1051    15.5219    15.2861 Cl    362 CCL4  -0.0812 
1811 CL      21.9220     6.7534    15.4592 Cl    363 CCL4  -0.0812 
1812 C       20.7150     6.7875    16.7664 C.3   363 CCL4   0.3246 
1813 CL      19.5711     8.1131    16.4699 Cl    363 CCL4  -0.0812 
1814 CL      21.5248     7.0044    18.3361 Cl    363 CCL4  -0.0812 
1815 CL      19.8288     5.2476    16.7781 Cl    363 CCL4  -0.0812 
1816 CL      11.7519     9.8186    15.3937 Cl    364 CCL4  -0.0812 
1817 C       10.2366     9.7868    16.3227 C.3   364 CCL4   0.3246 
1818 CL       9.4527    11.3802    16.2327 Cl    364 CCL4  -0.0812 
1819 CL      10.6158     9.4298    18.0224 Cl    364 CCL4  -0.0812 
1820 CL       9.1302     8.5406    15.7029 Cl    364 CCL4  -0.0812 
1821 CL      12.8417    17.1225     4.9912 Cl    365 CCL4  -0.0812 
1822 C       14.3093    17.5063     4.0618 C.3   365 CCL4   0.3246 
1823 CL      14.7649    19.2146     4.2500 Cl    365 CCL4  -0.0812 
1824 CL      14.0424    17.1452     2.3442 Cl    365 CCL4  -0.0812 
1825 CL      15.6449    16.4903     4.6433 Cl    365 CCL4  -0.0812 
1826 CL      11.9805    16.3407     8.7962 Cl    366 CCL4  -0.0812 
1827 C       12.3682    18.0657     8.9320 C.3   366 CCL4   0.3246 
1828 CL      11.6277    18.9704     7.5871 Cl    366 CCL4  -0.0812 
1829 CL      14.1386    18.2531     8.8863 Cl    366 CCL4  -0.0812 
1830 CL      11.7403    18.6683    10.4776 Cl    366 CCL4  -0.0812 
1831 CL      20.5691    12.6524     4.0733 Cl    367 CCL4  -0.0812 
1832 C       19.2578    13.7761     3.6713 C.3   367 CCL4   0.3246 
1833 CL      18.1062    12.9800     2.5863 Cl    367 CCL4  -0.0812 
1834 CL      19.9514    15.2111     2.8715 Cl    367 CCL4  -0.0812 
1835 CL      18.4009    14.2600     5.1496 Cl    367 CCL4  -0.0812 
1836 CL      10.8379    16.0139    19.5548 Cl    368 CCL4  -0.0812 
1837 C       10.8392    15.0454    18.0632 C.3   368 CCL4   0.3246 
1838 CL       9.2307    15.1260    17.3042 Cl    368 CCL4  -0.0812 
1839 CL      11.2519    13.3608    18.4708 Cl    368 CCL4  -0.0812 
1840 CL      12.0434    15.7201    16.9497 Cl    368 CCL4  -0.0812 
1841 CL      25.7785    10.1147    14.9633 Cl    369 CCL4  -0.0812 
1842 C       24.1248    10.5341    15.4657 C.3   369 CCL4   0.3246 
1843 CL      23.7258     9.6010    16.9231 Cl    369 CCL4  -0.0812 
1844 CL      22.9653    10.1410    14.1770 Cl    369 CCL4  -0.0812 
1845 CL      24.0303    12.2713    15.8506 Cl    369 CCL4  -0.0812 
1846 CL      22.3711    13.6615    12.8555 Cl    370 CCL4  -0.0812 
1847 C       21.7903    15.3355    12.9755 C.3   370 CCL4   0.3246 
1848 CL      20.0125    15.3371    13.0261 Cl    370 CCL4  -0.0812 
1849 CL      22.3554    16.2861    11.5852 Cl    370 CCL4  -0.0812 
1850 CL      22.4312    16.0721    14.4613 Cl    370 CCL4  -0.0812 
1851 CL      20.7608    16.2827     6.5686 Cl    371 CCL4  -0.0812 
1852 C       19.8228    17.7378     6.9702 C.3   371 CCL4   0.3246 
1853 CL      20.7050    18.6697     8.2064 Cl    371 CCL4  -0.0812 
1854 CL      18.2163    17.2694     7.5847 Cl    371 CCL4  -0.0812 
1855 CL      19.6344    18.7267     5.5022 Cl    371 CCL4  -0.0812 
@<TRIPOS>BOND
   1    1    2  1   
   2    2    3  1   
   3    2    4  1   
   4    2    5  1   
   5    6    7  1   
   6    7    8  1   
   7    7    9  1   
   8    7   10  1   
   9   11   12  1   
  10   12   13  1   
  11   12   14  1   
  12   12   15  1   
  13   16   17  1   
  14   17   18  1   
  15   17   19  1   
  16   17   20  1   
  17   21   22  1   
  18   22   23  1   
  19   22   24  1   
  20   22   25  1   
  21   26   27  1   
  22   27   28  1   
  23   27   29  1   
  24   27   30  1   
  25   31   32  1   
  26   32   33  1   
  27   32   34  1   
  28   32   35  1   
  29   36   37  1   
  30   37   38  1   
  31   37   39  1   
  32   37   40  1   
  33   41   42  1   
  34   42   43  1   
  35   42   44  1   
  36   42   45  1   
  37   46   47  1   
  38   47   48  1   
  39   47   49  1   
  40   47   50  1   
  41   51   52  1   
  42   52   53  1   
  43   52   54  1   
  44   52   55  1   
  45   56   57  1   
  46   57   58  1   
  47   57   59  1   
  48   57   60  1   
  49   61   62  1   
  50   62   63  1   
  51   62   64  1   
  52   62   65  1   
  53   66   67  1   
  54   67   68  1   
  55   67   69  1   
  56   67   70  1   
  57   71   72  1   
  58   72   73  1   
  59   72   74  1   
  60   72   75  1   
  61   76   77  1   
  62   77   78  1   
  63   77   79  1   
  64   77   80  1   
  65   81   82  1   
  66   82   83  1   
  67   82   84  1   
  68   82   85  1   
  69   86   87  1   
  70   87   88  1   
  71   87   89  1   
  72   87   90  1   
  73   91   92  1   
  74   92   93  1   
  75   92   94  1   
  76   92   95  1   
  77   96   97  1   
  78   97   98  1   
  79   97   99  1   
  80   97  100  1   
  81  101  102  1   
  82  102  103  1   
  83  102  104  1   
  84  102  105  1   
  85  106  107  1   
  86  107  108  1   
  87  107  109  1   
  88  107  110  1   
  89  111  112  1   
  90  112  113  1   
  91  112  114  1   
  92  112  115  1   
  93  116  117  1   
  94  117  118  1   
  95  117  119  1   
  96  117  120  1   
  97  121  122  1   
  98  122  123  1   
  99  122  124  1   
 100  122  125  1   
 101  126  127  1   
 102  127  128  1   
 103  127  129  1   
 104  127  130  1   
 105  131  132  1   
 106  132  133  1   
 107  132  134  1   
 108  132  135  1   
 109  136  137  1   
 110  137  138  1   
 111  137  139  1   
 112  137  140  1   
 113  141  142  1   
 114  142  143  1   
 115  142  144  1   
 116  142  145  1   
 117  146  147  1   
 118  147  148  1   
 119  147  149  1   
 120  147  150  1   
 121  151  152  1   
 122  152  153  1   
 123  152  154  1   
 124  152  155  1   
 125  156  157  1   
 126  157  158  1   
 127  157  159  1   
 128  157  160  1   
 129  161  162  1   
 130  162  163  1   
 131  162  164  1   
 132  162  165  1   
 133  166  167  1   
 134  167  168  1   
 135  167  169  1   
 136  167  170  1   
 137  171  172  1   
 138  172  173  1   
 139  172  174  1   
 140  172  175  1   
 141  176  177  1   
 142  177  178  1   
 143  177  179  1   
 144  177  180  1   
 145  181  182  1   
 146  182  183  1   
 147  182  184  1   
 148  182  185  1   
 149  186  187  1   
 150  187  188  1   
 151  187  189  1   
 152  187  190  1   
 153  191  192  1   
 154  192  193  1   
 155  192  194  1   
 156  192  195  1   
 157  196  197  1   
 158  197  198  1   
 159  197  199  1   
 160  197  200  1   
 161  201  202  1   
 162  202  203  1   
 163  202  204  1   
 164  202  205  1   
 165  206  207  1   
 166  207  208  1   
 167  207  209  1   
 168  207  210  1   
 169  211  212  1   
 170  212  213  1   
 171  212  214  1   
 172  212  215  1   
 173  216  217  1   
 174  217  218  1   
 175  217  219  1   
 176  217  220  1   
 177  221  222  1   
 178  222  223  1   
 179  222  224  1   
 180  222  225  1   
 181  226  227  1   
 182  227  228  1   
 183  227  229  1   
 184  227  230  1   
 185  231  232  1   
 186  232  233  1   
 187  232  234  1   
 188  232  235  1   
 189  236  237  1   
 190  237  238  1   
 191  237  239  1   
 192  237  240  1   
 193  241  242  1   
 194  242  243  1   
 195  242  244  1   
 196  242  245  1   
 197  246  247  1   
 198  247  248  1   
 199  247  249  1   
 200  247  250  1   
 201  251  252  1   
 202  252  253  1   
 203  252  254  1   
 204  252  255  1   
 205  256  257  1   
 206  257  258  1   
 207  257  259  1   
 208  257  260  1   
 209  261  262  1   
 210  262  263  1   
 211  262  264  1   
 212  262  265  1   
 213  266  267  1   
 214  267  268  1   
 215  267  269  1   
 216  267  270  1   
 217  271  272  1   
 218  272  273  1   
 219  272  274  1   
 220  272  275  1   
 221  276  277  1   
 222  277  278  1   
 223  277  279  1   
 224  277  280  1   
 225  281  282  1   
 226  282  283  1   
 227  282  284  1   
 228  282  285  1   
 229  286  287  1   
 230  287  288  1   
 231  287  289  1   
 232  287  290  1   
 233  291  292  1   
 234  292  293  1   
 235  292  294  1   
 236  292  295  1   
 237  296  297  1   
 238  297  298  1   
 239  297  299  1   
 240  297  300  1   
 241  301  302  1   
 242  302  303  1   
 243  302  304  1   
 244  302  305  1   
 245  306  307  1   
 246  307  308  1   
 247  307  309  1   
 248  307  310  1   
 249  311  312  1   
 250  312  313  1   
 251  312  314  1   
 252  312  315  1   
 253  316  317  1   
 254  317  318  1   
 255  317  319  1   
 256  317  320  1   
 257  321  322  1   
 258  322  323  1   
 259  322  324  1   
 260  322  325  1   
 261  326  327  1   
 262  327  328  1   
 263  327  329  1   
 264  327  330  1   
 265  331  332  1   
 266  332  333  1   
 267  332  334  1   
 268  332  335  1   
 269  336  337  1   
 270  337  338  1   
 271  337  339  1   
 272  337  340  1   
 273  341  342  1   
 274  342  343  1   
 275  342  344  1   
 276  342  345  1   
 277  346  347  1   
 278  347  348  1   
 279  347  349  1   
 280  347  350  1   
 281  351  352  1   
 282  352  353  1   
 283  352  354  1   
 284  352  355  1   
 285  356  357  1   
 286  357  358  1   
 287  357  359  1   
 288  357  360  1   
 289  361  362  1   
 290  362  363  1   
 291  362  364  1   
 292  362  365  1   
 293  366  367  1   
 294  367  368  1   
 295  367  369  1   
 296  367  370  1   
 297  371  372  1   
 298  372  373  1   
 299  372  374  1   
 300  372  375  1   
 301  376  377  1   
 302  377  378  1   
 303  377  379  1   
 304  377  380  1   
 305  381  382  1   
 306  382  383  1   
 307  382  384  1   
 308  382  385  1   
 309  386  387  1   
 310  387  388  1   
 311  387  389  1   
 312  387  390  1   
 313  391  392  1   
 314  392  393  1   
 315  392  394  1   
 316  392  395  1   
 317  396  397  1   
 318  397  398  1   
 319  397  399  1   
 320  397  400  1   
 321  401  402  1   
 322  402  403  1   
 323  402  404  1   
 324  402  405  1   
 325  406  407  1   
 326  407  408  1   
 327  407  409  1   
 328  407  410  1   
 329  411  412  1   
 330  412  413  1   
 331  412  414  1   
 332  412  415  1   
 333  416  417  1   
 334  417  418  1   
 335  417  419  1   
 336  417  420  1   
 337  421  422  1   
 338  422  423  1   
 339  422  424  1   
 340  422  425  1   
 341  426  427  1   
 342  427  428  1   
 343  427  429  1   
 344  427  430  1   
 345  431  432  1   
 346  432  433  1   
 347  432  434  1   
 348  432  435  1   
 349  436  437  1   
 350  437  438  1   
 351  437  439  1   
 352  437  440  1   
 353  441  442  1   
 354  442  443  1   
 355  442  444  1   
 356  442  445  1   
 357  446  447  1   
 358  447  448  1   
 359  447  449  1   
 360  447  450  1   
 361  451  452  1   
 362  452  453  1   
 363  452  454  1   
 364  452  455  1   
 365  456  457  1   
 366  457  458  1   
 367  457  459  1   
 368  457  460  1   
 369  461  462  1   
 370  462  463  1   
 371  462  464  1   
 372  462  465  1   
 373  466  467  1   
 374  467  468  1   
 375  467  469  1   
 376  467  470  1   
 377  471  472  1   
 378  472  473  1   
 379  472  474  1   
 380  472  475  1   
 381  476  477  1   
 382  477  478  1   
 383  477  479  1   
 384  477  480  1   
 385  481  482  1   
 386  482  483  1   
 387  482  484  1   
 388  482  485  1   
 389  486  487  1   
 390  487  488  1   
 391  487  489  1   
 392  487  490  1   
 393  491  492  1   
 394  492  493  1   
 395  492  494  1   
 396  492  495  1   
 397  496  497  1   
 398  497  498  1   
 399  497  499  1   
 400  497  500  1   
 401  501  502  1   
 402  502  503  1   
 403  502  504  1   
 404  502  505  1   
 405  506  507  1   
 406  507  508  1   
 407  507  509  1   
 408  507  510  1   
 409  511  512  1   
 410  512  513  1   
 411  512  514  1   
 412  512  515  1   
 413  516  517  1   
 414  517  518  1   
 415  517  519  1   
 416  517  520  1   
 417  521  522  1   
 418  522  523  1   
 419  522  524  1   
 420  522  525  1   
 421  526  527  1   
 422  527  528  1   
 423  527  529  1   
 424  527  530  1   
 425  531  532  1   
 426  532  533  1   
 427  532  534  1   
 428  532  535  1   
 429  536  537  1   
 430  537  538  1   
 431  537  539  1   
 432  537  540  1   
 433  541  542  1   
 434  542  543  1   
 435  542  544  1   
 436  542  545  1   
 437  546  547  1   
 438  547  548  1   
 439  547  549  1   
 440  547  550  1   
 441  551  552  1   
 442  552  553  1   
 443  552  554  1   
 444  552  555  1   
 445  556  557  1   
 446  557  558  1   
 447  557  559  1   
 448  557  560  1   
 449  561  562  1   
 450  562  563  1   
 451  562  564  1   
 452  562  565  1   
 453  566  567  1   
 454  567  568  1   
 455  567  569  1   
 456  567  570  1   
 457  571  572  1   
 458  572  573  1   
 459  572  574  1   
 460  572  575  1   
 461  576  577  1   
 462  577  578  1   
 463  577  579  1   
 464  577  580  1   
 465  581  582  1   
 466  582  583  1   
 467  582  584  1   
 468  582  585  1   
 469  586  587  1   
 470  587  588  1   
 471  587  589  1   
 472  587  590  1   
 473  591  592  1   
 474  592  593  1   
 475  592  594  1   
 476  592  595  1   
 477  596  597  1   
 478  597  598  1   
 479  597  599  1   
 480  597  600  1   
 481  601  602  1   
 482  602  603  1   
 483  602  604  1   
 484  602  605  1   
 485  606  607  1   
 486  607  608  1   
 487  607  609  1   
 488  607  610  1   
 489  611  612  1   
 490  612  613  1   
 491  612  614  1   
 492  612  615  1   
 493  616  617  1   
 494  617  618  1   
 495  617  619  1   
 496  617  620  1   
 497  621  622  1   
 498  622  623  1   
 499  622  624  1   
 500  622  625  1   
 501  626  627  1   
 502  627  628  1   
 503  627  629  1   
 504  627  630  1   
 505  631  632  1   
 506  632  633  1   
 507  632  634  1   
 508  632  635  1   
 509  636  637  1   
 510  637  638  1   
 511  637  639  1   
 512  637  640  1   
 513  641  642  1   
 514  642  643  1   
 515  642  644  1   
 516  642  645  1   
 517  646  647  1   
 518  647  648  1   
 519  647  649  1   
 520  647  650  1   
 521  651  652  1   
 522  652  653  1   
 523  652  654  1   
 524  652  655  1   
 525  656  657  1   
 526  657  658  1   
 527  657  659  1   
 528  657  660  1   
 529  661  662  1   
 530  662  663  1   
 531  662  664  1   
 532  662  665  1   
 533  666  667  1   
 534  667  668  1   
 535  667  669  1   
 536  667  670  1   
 537  671  672  1   
 538  672  673  1   
 539  672  674  1   
 540  672  675  1   
 541  676  677  1   
 542  677  678  1   
 543  677  679  1   
 544  677  680  1   
 545  681  682  1   
 546  682  683  1   
 547  682  684  1   
 548  682  685  1   
 549  686  687  1   
 550  687  688  1   
 551  687  689  1   
 552  687  690  1   
 553  691  692  1   
 554  692  693  1   
 555  692  694  1   
 556  692  695  1   
 557  696  697  1   
 558  697  698  1   
 559  697  699  1   
 560  697  700  1   
 561  701  702  1   
 562  702  703  1   
 563  702  704  1   
 564  702  705  1   
 565  706  707  1   
 566  707  708  1   
 567  707  709  1   
 568  707  710  1   
 569  711  712  1   
 570  712  713  1   
 571  712  714  1   
 572  712  715  1   
 573  716  717  1   
 574  717  718  1   
 575  717  719  1   
 576  717  720  1   
 577  721  722  1   
 578  722  723  1   
 579  722  724  1   
 580  722  725  1   
 581  726  727  1   
 582  727  728  1   
 583  727  729  1   
 584  727  730  1   
 585  731  732  1   
 586  732  733  1   
 587  732  734  1   
 588  732  735  1   
 589  736  737  1   
 590  737  738  1   
 591  737  739  1   
 592  737  740  1   
 593  741  742  1   
 594  742  743  1   
 595  742  744  1   
 596  742  745  1   
 597  746  747  1   
 598  747  748  1   
 599  747  749  1   
 600  747  750  1   
 601  751  752  1   
 602  752  753  1   
 603  752  754  1   
 604  752  755  1   
 605  756  757  1   
 606  757  758  1   
 607  757  759  1   
 608  757  760  1   
 609  761  762  1   
 610  762  763  1   
 611  762  764  1   
 612  762  765  1   
 613  766  767  1   
 614  767  768  1   
 615  767  769  1   
 616  767  770  1   
 617  771  772  1   
 618  772  773  1   
 619  772  774  1   
 620  772  775  1   
 621  776  777  1   
 622  777  778  1   
 623  777  779  1   
 624  777  780  1   
 625  781  782  1   
 626  782  783  1   
 627  782  784  1   
 628  782  785  1   
 629  786  787  1   
 630  787  788  1   
 631  787  789  1   
 632  787  790  1   
 633  791  792  1   
 634  792  793  1   
 635  792  794  1   
 636  792  795  1   
 637  796  797  1   
 638  797  798  1   
 639  797  799  1   
 640  797  800  1   
 641  801  802  1   
 642  802  803  1   
 643  802  804  1   
 644  802  805  1   
 645  806  807  1   
 646  807  808  1   
 647  807  809  1   
 648  807  810  1   
 649  811  812  1   
 650  812  813  1   
 651  812  814  1   
 652  812  815  1   
 653  816  817  1   
 654  817  818  1   
 655  817  819  1   
 656  817  820  1   
 657  821  822  1   
 658  822  823  1   
 659  822  824  1   
 660  822  825  1   
 661  826  827  1   
 662  827  828  1   
 663  827  829  1   
 664  827  830  1   
 665  831  832  1   
 666  832  833  1   
 667  832  834  1   
 668  832  835  1   
 669  836  837  1   
 670  837  838  1   
 671  837  839  1   
 672  837  840  1   
 673  841  842  1   
 674  842  843  1   
 675  842  844  1   
 676  842  845  1   
 677  846  847  1   
 678  847  848  1   
 679  847  849  1   
 680  847  850  1   
 681  851  852  1   
 682  852  853  1   
 683  852  854  1   
 684  852  855  1   
 685  856  857  1   
 686  857  858  1   
 687  857  859  1   
 688  857  860  1   
 689  861  862  1   
 690  862  863  1   
 691  862  864  1   
 692  862  865  1   
 693  866  867  1   
 694  867  868  1   
 695  867  869  1   
 696  867  870  1   
 697  871  872  1   
 698  872  873  1   
 699  872  874  1   
 700  872  875  1   
 701  876  877  1   
 702  877  878  1   
 703  877  879  1   
 704  877  880  1   
 705  881  882  1   
 706  882  883  1   
 707  882  884  1   
 708  882  885  1   
 709  886  887  1   
 710  887  888  1   
 711  887  889  1   
 712  887  890  1   
 713  891  892  1   
 714  892  893  1   
 715  892  894  1   
 716  892  895  1   
 717  896  897  1   
 718  897  898  1   
 719  897  899  1   
 720  897  900  1   
 721  901  902  1   
 722  902  903  1   
 723  902  904  1   
 724  902  905  1   
 725  906  907  1   
 726  907  908  1   
 727  907  909  1   
 728  907  910  1   
 729  911  912  1   
 730  912  913  1   
 731  912  914  1   
 732  912  915  1   
 733  916  917  1   
 734  917  918  1   
 735  917  919  1   
 736  917  920  1   
 737  921  922  1   
 738  922  923  1   
 739  922  924  1   
 740  922  925  1   
 741  926  927  1   
 742  927  928  1   
 743  927  929  1   
 744  927  930  1   
 745  931  932  1   
 746  932  933  1   
 747  932  934  1   
 748  932  935  1   
 749  936  937  1   
 750  937  938  1   
 751  937  939  1   
 752  937  940  1   
 753  941  942  1   
 754  942  943  1   
 755  942  944  1   
 756  942  945  1   
 757  946  947  1   
 758  947  948  1   
 759  947  949  1   
 760  947  950  1   
 761  951  952  1   
 762  952  953  1   
 763  952  954  1   
 764  952  955  1   
 765  956  957  1   
 766  957  958  1   
 767  957  959  1   
 768  957  960  1   
 769  961  962  1   
 770  962  963  1   
 771  962  964  1   
 772  962  965  1   
 773  966  967  1   
 774  967  968  1   
 775  967  969  1   
 776  967  970  1   
 777  971  972  1   
 778  972  973  1   
 779  972  974  1   
 780  972  975  1   
 781  976  977  1   
 782  977  978  1   
 783  977  979  1   
 784  977  980  1   
 785  981  982  1   
 786  982  983  1   
 787  982  984  1   
 788  982  985  1   
 789  986  987  1   
 790  987  988  1   
 791  987  989  1   
 792  987  990  1   
 793  991  992  1   
 794  992  993  1   
 795  992  994  1   
 796  992  995  1   
 797  996  997  1   
 798  997  998  1   
 799  997  999  1   
 800  997 1000  1   
 801 1001 1002  1   
 802 1002 1003  1   
 803 1002 1004  1   
 804 1002 1005  1   
 805 1006 1007  1   
 806 1007 1008  1   
 807 1007 1009  1   
 808 1007 1010  1   
 809 1011 1012  1   
 810 1012 1013  1   
 811 1012 1014  1   
 812 1012 1015  1   
 813 1016 1017  1   
 814 1017 1018  1   
 815 1017 1019  1   
 816 1017 1020  1   
 817 1021 1022  1   
 818 1022 1023  1   
 819 1022 1024  1   
 820 1022 1025  1   
 821 1026 1027  1   
 822 1027 1028  1   
 823 1027 1029  1   
 824 1027 1030  1   
 825 1031 1032  1   
 826 1032 1033  1   
 827 1032 1034  1   
 828 1032 1035  1   
 829 1036 1037  1   
 830 1037 1038  1   
 831 1037 1039  1   
 832 1037 1040  1   
 833 1041 1042  1   
 834 1042 1043  1   
 835 1042 1044  1   
 836 1042 1045  1   
 837 1046 1047  1   
 838 1047 1048  1   
 839 1047 1049  1   
 840 1047 1050  1   
 841 1051 1052  1   
 842 1052 1053  1   
 843 1052 1054  1   
 844 1052 1055  1   
 845 1056 1057  1   
 846 1057 1058  1   
 847 1057 1059  1   
 848 1057 1060  1   
 849 1061 1062  1   
 850 1062 1063  1   
 851 1062 1064  1   
 852 1062 1065  1   
 853 1066 1067  1   
 854 1067 1068  1   
 855 1067 1069  1   
 856 1067 1070  1   
 857 1071 1072  1   
 858 1072 1073  1   
 859 1072 1074  1   
 860 1072 1075  1   
 861 1076 1077  1   
 862 1077 1078  1   
 863 1077 1079  1   
 864 1077 1080  1   
 865 1081 1082  1   
 866 1082 1083  1   
 867 1082 1084  1   
 868 1082 1085  1   
 869 1086 1087  1   
 870 1087 1088  1   
 871 1087 1089  1   
 872 1087 1090  1   
 873 1091 1092  1   
 874 1092 1093  1   
 875 1092 1094  1   
 876 1092 1095  1   
 877 1096 1097  1   
 878 1097 1098  1   
 879 1097 1099  1   
 880 1097 1100  1   
 881 1101 1102  1   
 882 1102 1103  1   
 883 1102 1104  1   
 884 1102 1105  1   
 885 1106 1107  1   
 886 1107 1108  1   
 887 1107 1109  1   
 888 1107 1110  1   
 889 1111 1112  1   
 890 1112 1113  1   
 891 1112 1114  1   
 892 1112 1115  1   
 893 1116 1117  1   
 894 1117 1118  1   
 895 1117 1119  1   
 896 1117 1120  1   
 897 1121 1122  1   
 898 1122 1123  1   
 899 1122 1124  1   
 900 1122 1125  1   
 901 1126 1127  1   
 902 1127 1128  1   
 903 1127 1129  1   
 904 1127 1130  1   
 905 1131 1132  1   
 906 1132 1133  1   
 907 1132 1134  1   
 908 1132 1135  1   
 909 1136 1137  1   
 910 1137 1138  1   
 911 1137 1139  1   
 912 1137 1140  1   
 913 1141 1142  1   
 914 1142 1143  1   
 915 1142 1144  1   
 916 1142 1145  1   
 917 1146 1147  1   
 918 1147 1148  1   
 919 1147 1149  1   
 920 1147 1150  1   
 921 1151 1152  1   
 922 1152 1153  1   
 923 1152 1154  1   
 924 1152 1155  1   
 925 1156 1157  1   
 926 1157 1158  1   
 927 1157 1159  1   
 928 1157 1160  1   
 929 1161 1162  1   
 930 1162 1163  1   
 931 1162 1164  1   
 932 1162 1165  1   
 933 1166 1167  1   
 934 1167 1168  1   
 935 1167 1169  1   
 936 1167 1170  1   
 937 1171 1172  1   
 938 1172 1173  1   
 939 1172 1174  1   
 940 1172 1175  1   
 941 1176 1177  1   
 942 1177 1178  1   
 943 1177 1179  1   
 944 1177 1180  1   
 945 1181 1182  1   
 946 1182 1183  1   
 947 1182 1184  1   
 948 1182 1185  1   
 949 1186 1187  1   
 950 1187 1188  1   
 951 1187 1189  1   
 952 1187 1190  1   
 953 1191 1192  1   
 954 1192 1193  1   
 955 1192 1194  1   
 956 1192 1195  1   
 957 1196 1197  1   
 958 1197 1198  1   
 959 1197 1199  1   
 960 1197 1200  1   
 961 1201 1202  1   
 962 1202 1203  1   
 963 1202 1204  1   
 964 1202 1205  1   
 965 1206 1207  1   
 966 1207 1208  1   
 967 1207 1209  1   
 968 1207 1210  1   
 969 1211 1212  1   
 970 1212 1213  1   
 971 1212 1214  1   
 972 1212 1215  1   
 973 1216 1217  1   
 974 1217 1218  1   
 975 1217 1219  1   
 976 1217 1220  1   
 977 1221 1222  1   
 978 1222 1223  1   
 979 1222 1224  1   
 980 1222 1225  1   
 981 1226 1227  1   
 982 1227 1228  1   
 983 1227 1229  1   
 984 1227 1230  1   
 985 1231 1232  1   
 986 1232 1233  1   
 987 1232 1234  1   
 988 1232 1235  1   
 989 1236 1237  1   
 990 1237 1238  1   
 991 1237 1239  1   
 992 1237 1240  1   
 993 1241 1242  1   
 994 1242 1243  1   
 995 1242 1244  1   
 996 1242 1245  1   
 997 1246 1247  1   
 998 1247 1248  1   
 999 1247 1249  1   
1000 1247 1250  1   
1001 1251 1252  1   
1002 1252 1253  1   
1003 1252 1254  1   
1004 1252 1255  1   
1005 1256 1257  1   
1006 1257 1258  1   
1007 1257 1259  1   
1008 1257 1260  1   
1009 1261 1262  1   
1010 1262 1263  1   
1011 1262 1264  1   
1012 1262 1265  1   
1013 1266 1267  1   
1014 1267 1268  1   
1015 1267 1269  1   
1016 1267 1270  1   
1017 1271 1272  1   
1018 1272 1273  1   
1019 1272 1274  1   
1020 1272 1275  1   
1021 1276 1277  1   
1022 1277 1278  1   
1023 1277 1279  1   
1024 1277 1280  1   
1025 1281 1282  1   
1026 1282 1283  1   
1027 1282 1284  1   
1028 1282 1285  1   
1029 1286 1287  1   
1030 1287 1288  1   
1031 1287 1289  1   
1032 1287 1290  1   
1033 1291 1292  1   
1034 1292 1293  1   
1035 1292 1294  1   
1036 1292 1295  1   
1037 1296 1297  1   
1038 1297 1298  1   
1039 1297 1299  1   
1040 1297 1300  1   
1041 1301 1302  1   
1042 1302 1303  1   
1043 1302 1304  1   
1044 1302 1305  1   
1045 1306 1307  1   
1046 1307 1308  1   
1047 1307 1309  1   
1048 1307 1310  1   
1049 1311 1312  1   
1050 1312 1313  1   
1051 1312 1314  1   
1052 1312 1315  1   
1053 1316 1317  1   
1054 1317 1318  1   
1055 1317 1319  1   
1056 1317 1320  1   
1057 1321 1322  1   
1058 1322 1323  1   
1059 1322 1324  1   
1060 1322 1325  1   
1061 1326 1327  1   
1062 1327 1328  1   
1063 1327 1329  1   
1064 1327 1330  1   
1065 1331 1332  1   
1066 1332 1333  1   
1067 1332 1334  1   
1068 1332 1335  1   
1069 1336 1337  1   
1070 1337 1338  1   
1071 1337 1339  1   
1072 1337 1340  1   
1073 1341 1342  1   
1074 1342 1343  1   
1075 1342 1344  1   
1076 1342 1345  1   
1077 1346 1347  1   
1078 1347 1348  1   
1079 1347 1349  1   
1080 1347 1350  1   
1081 1351 1352  1   
1082 1352 1353  1   
1083 1352 1354  1   
1084 1352 1355  1   
1085 1356 1357  1   
1086 1357 1358  1   
1087 1357 1359  1   
1088 1357 1360  1   
1089 1361 1362  1   
1090 1362 1363  1   
1091 1362 1364  1   
1092 1362 1365  1   
1093 1366 1367  1   
1094 1367 1368  1   
1095 1367 1369  1   
1096 1367 1370  1   
1097 1371 1372  1   
1098 1372 1373  1   
1099 1372 1374  1   
1100 1372 1375  1   
1101 1376 1377  1   
1102 1377 1378  1   
1103 1377 1379  1   
1104 1377 1380  1   
1105 1381 1382  1   
1106 1382 1383  1   
1107 1382 1384  1   
1108 1382 1385  1   
1109 1386 1387  1   
1110 1387 1388  1   
1111 1387 1389  1   
1112 1387 1390  1   
1113 1391 1392  1   
1114 1392 1393  1   
1115 1392 1394  1   
1116 1392 1395  1   
1117 1396 1397  1   
1118 1397 1398  1   
1119 1397 1399  1   
1120 1397 1400  1   
1121 1401 1402  1   
1122 1402 1403  1   
1123 1402 1404  1   
1124 1402 1405  1   
1125 1406 1407  1   
1126 1407 1408  1   
1127 1407 1409  1   
1128 1407 1410  1   
1129 1411 1412  1   
1130 1412 1413  1   
1131 1412 1414  1   
1132 1412 1415  1   
1133 1416 1417  1   
1134 1417 1418  1   
1135 1417 1419  1   
1136 1417 1420  1   
1137 1421 1422  1   
1138 1422 1423  1   
1139 1422 1424  1   
1140 1422 1425  1   
1141 1426 1427  1   
1142 1427 1428  1   
1143 1427 1429  1   
1144 1427 1430  1   
1145 1431 1432  1   
1146 1432 1433  1   
1147 1432 1434  1   
1148 1432 1435  1   
1149 1436 1437  1   
1150 1437 1438  1   
1151 1437 1439  1   
1152 1437 1440  1   
1153 1441 1442  1   
1154 1442 1443  1   
1155 1442 1444  1   
1156 1442 1445  1   
1157 1446 1447  1   
1158 1447 1448  1   
1159 1447 1449  1   
1160 1447 1450  1   
1161 1451 1452  1   
1162 1452 1453  1   
1163 1452 1454  1   
1164 1452 1455  1   
1165 1456 1457  1   
1166 1457 1458  1   
1167 1457 1459  1   
1168 1457 1460  1   
1169 1461 1462  1   
1170 1462 1463  1   
1171 1462 1464  1   
1172 1462 1465  1   
1173 1466 1467  1   
1174 1467 1468  1   
1175 1467 1469  1   
1176 1467 1470  1   
1177 1471 1472  1   
1178 1472 1473  1   
1179 1472 1474  1   
1180 1472 1475  1   
1181 1476 1477  1   
1182 1477 1478  1   
1183 1477 1479  1   
1184 1477 1480  1   
1185 1481 1482  1   
1186 1482 1483  1   
1187 1482 1484  1   
1188 1482 1485  1   
1189 1486 1487  1   
1190 1487 1488  1   
1191 1487 1489  1   
1192 1487 1490  1   
1193 1491 1492  1   
1194 1492 1493  1   
1195 1492 1494  1   
1196 1492 1495  1   
1197 1496 1497  1   
1198 1497 1498  1   
1199 1497 1499  1   
1200 1497 1500  1   
1201 1501 1502  1   
1202 1502 1503  1   
1203 1502 1504  1   
1204 1502 1505  1   
1205 1506 1507  1   
1206 1507 1508  1   
1207 1507 1509  1   
1208 1507 1510  1   
1209 1511 1512  1   
1210 1512 1513  1   
1211 1512 1514  1   
1212 1512 1515  1   
1213 1516 1517  1   
1214 1517 1518  1   
1215 1517 1519  1   
1216 1517 1520  1   
1217 1521 1522  1   
1218 1522 1523  1   
1219 1522 1524  1   
1220 1522 1525  1   
1221 1526 1527  1   
1222 1527 1528  1   
1223 1527 1529  1   
1224 1527 1530  1   
1225 1531 1532  1   
1226 1532 1533  1   
1227 1532 1534  1   
1228 1532 1535  1   
1229 1536 1537  1   
1230 1537 1538  1   
1231 1537 1539  1   
1232 1537 1540  1   
1233 1541 1542  1   
1234 1542 1543  1   
1235 1542 1544  1   
1236 1542 1545  1   
1237 1546 1547  1   
1238 1547 1548  1   
1239 1547 1549  1   
1240 1547 1550  1   
1241 1551 1552  1   
1242 1552 1553  1   
1243 1552 1554  1   
1244 1552 1555  1   
1245 1556 1557  1   
1246 1557 1558  1   
1247 1557 1559  1   
1248 1557 1560  1   
1249 1561 1562  1   
1250 1562 1563  1   
1251 1562 1564  1   
1252 1562 1565  1   
1253 1566 1567  1   
1254 1567 1568  1   
1255 1567 1569  1   
1256 1567 1570  1   
1257 1571 1572  1   
1258 1572 1573  1   
1259 1572 1574  1   
1260 1572 1575  1   
1261 1576 1577  1   
1262 1577 1578  1   
1263 1577 1579  1   
1264 1577 1580  1   
1265 1581 1582  1   
1266 1582 1583  1   
1267 1582 1584  1   
1268 1582 1585  1   
1269 1586 1587  1   
1270 1587 1588  1   
1271 1587 1589  1   
1272 1587 1590  1   
1273 1591 1592  1   
1274 1592 1593  1   
1275 1592 1594  1   
1276 1592 1595  1   
1277 1596 1597  1   
1278 1597 1598  1   
1279 1597 1599  1   
1280 1597 1600  1   
1281 1601 1602  1   
1282 1602 1603  1   
1283 1602 1604  1   
1284 1602 1605  1   
1285 1606 1607  1   
1286 1607 1608  1   
1287 1607 1609  1   
1288 1607 1610  1   
1289 1611 1612  1   
1290 1612 1613  1   
1291 1612 1614  1   
1292 1612 1615  1   
1293 1616 1617  1   
1294 1617 1618  1   
1295 1617 1619  1   
1296 1617 1620  1   
1297 1621 1622  1   
1298 1622 1623  1   
1299 1622 1624  1   
1300 1622 1625  1   
1301 1626 1627  1   
1302 1627 1628  1   
1303 1627 1629  1   
1304 1627 1630  1   
1305 1631 1632  1   
1306 1632 1633  1   
1307 1632 1634  1   
1308 1632 1635  1   
1309 1636 1637  1   
1310 1637 1638  1   
1311 1637 1639  1   
1312 1637 1640  1   
1313 1641 1642  1   
1314 1642 1643  1   
1315 1642 1644  1   
1316 1642 1645  1   
1317 1646 1647  1   
1318 1647 1648  1   
1319 1647 1649  1   
1320 1647 1650  1   
1321 1651 1652  1   
1322 1652 1653  1   
1323 1652 1654  1   
1324 1652 1655  1   
1325 1656 1657  1   
1326 1657 1658  1   
1327 1657 1659  1   
1328 1657 1660  1   
1329 1661 1662  1   
1330 1662 1663  1   
1331 1662 1664  1   
1332 1662 1665  1   
1333 1666 1667  1   
1334 1667 1668  1   
1335 1667 1669  1   
1336 1667 1670  1   
1337 1671 1672  1   
1338 1672 1673  1   
1339 1672 1674  1   
1340 1672 1675  1   
1341 1676 1677  1   
1342 1677 1678  1   
1343 1677 1679  1   
1344 1677 1680  1   
1345 1681 1682  1   
1346 1682 1683  1   
1347 1682 1684  1   
1348 1682 1685  1   
1349 1686 1687  1   
1350 1687 1688  1   
1351 1687 1689  1   
1352 1687 1690  1   
1353 1691 1692  1   
1354 1692 1693  1   
1355 1692 1694  1   
1356 1692 1695  1   
1357 1696 1697  1   
1358 1697 1698  1   
1359 1697 1699  1   
1360 1697 1700  1   
1361 1701 1702  1   
1362 1702 1703  1   
1363 1702 1704  1   
1364 1702 1705  1   
1365 1706 1707  1   
1366 1707 1708  1   
1367 1707 1709  1   
1368 1707 1710  1   
1369 1711 1712  1   
1370 1712 1713  1   
1371 1712 1714  1   
1372 1712 1715  1   
1373 1716 1717  1   
1374 1717 1718  1   
1375 1717 1719  1   
1376 1717 1720  1   
1377 1721 1722  1   
1378 1722 1723  1   
1379 1722 1724  1   
1380 1722 1725  1   
1381 1726 1727  1   
1382 1727 1728  1   
1383 1727 1729  1   
1384 1727 1730  1   
1385 1731 1732  1   
1386 1732 1733  1   
1387 1732 1734  1   
1388 1732 1735  1   
1389 1736 1737  1   
1390 1737 1738  1   
1391 1737 1739  1   
1392 1737 1740  1   
1393 1741 1742  1   
1394 1742 1743  1   
1395 1742 1744  1   
1396 1742 1745  1   
1397 1746 1747  1   
1398 1747 1748  1   
1399 1747 1749  1   
1400 1747 1750  1   
1401 1751 1752  1   
1402 1752 1753  1   
1403 1752 1754  1   
1404 1752 1755  1   
1405 1756 1757  1   
1406 1757 1758  1   
1407 1757 1759  1   
1408 1757 1760  1   
1409 1761 1762  1   
1410 1762 1763  1   
1411 1762 1764  1   
1412 1762 1765  1   
1413 1766 1767  1   
1414 1767 1768  1   
1415 1767 1769  1   
1416 1767 1770  1   
1417 1771 1772  1   
1418 1772 1773  1   
1419 1772 1774  1   
1420 1772 1775  1   
1421 1776 1777  1   
1422 1777 1778  1   
1423 1777 1779  1   
1424 1777 1780  1   
1425 1781 1782  1   
1426 1782 1783  1   
1427 1782 1784  1   
1428 1782 1785  1   
1429 1786 1787  1   
1430 1787 1788  1   
1431 1787 1789  1   
1432 1787 1790  1   
1433 1791 1792  1   
1434 1792 1793  1   
1435 1792 1794  1   
1436 1792 1795  1   
1437 1796 1797  1   
1438 1797 1798  1   
1439 1797 1799  1   
1440 1797 1800  1   
1441 1801 1802  1   
1442 1802 1803  1   
1443 1802 1804  1   
1444 1802 1805  1   
1445 1806 1807  1   
1446 1807 1808  1   
1447 1807 1809  1   
1448 1807 1810  1   
1449 1811 1812  1   
1450 1812 1813  1   
1451 1812 1814  1   
1452 1812 1815  1   
1453 1816 1817  1   
1454 1817 1818  1   
1455 1817 1819  1   
1456 1817 1820  1   
1457 1821 1822  1   
1458 1822 1823  1   
1459 1822 1824  1   
1460 1822 1825  1   
1461 1826 1827  1   
1462 1827 1828  1   
1463 1827 1829  1   
1464 1827 1830  1   
1465 1831 1832  1   
1466 1832 1833  1   
1467 1832 1834  1   
1468 1832 1835  1   
1469 1836 1837  1   
1470 1837 1838  1   
1471 1837 1839  1   
1472 1837 1840  1   
1473 1841 1842  1   
1474 1842 1843  1   
1475 1842 1844  1   
1476 1842 1845  1   
1477 1846 1847  1   
1478 1847 1848  1   
1479 1847 1849  1   
1480 1847 1850  1   
1481 1851 1852  1   
1482 1852 1853  1   
1483 1852 1854  1   
1484 1852 1855  1   
@<TRIPOS>SUBSTRUCTURE
  1 CCL4    2 GROUP 4 **** **** 0
  2 CCL4    7 GROUP 4 **** **** 0
  3 CCL4   12 GROUP 4 **** **** 0
  4 CCL4   17 GROUP 4 **** **** 0
  5 CCL4   22 GROUP 4 **** **** 0
  6 CCL4   27 GROUP 4 **** **** 0
  7 CCL4   32 GROUP 4 **** **** 0
  8 CCL4   37 GROUP 4 **** **** 0
  9 CCL4   42 GROUP 4 **** **** 0
 10 CCL4   47 GROUP 4 **** **** 0
 11 CCL4   52 GROUP 4 **** **** 0
 12 CCL4   57 GROUP 4 **** **** 0
 13 CCL4   62 GROUP 4 **** **** 0
 14 CCL4   67 GROUP 4 **** **** 0
 15 CCL4   72 GROUP 4 **** **** 0
 16 CCL4   77 GROUP 4 **** **** 0
 17 CCL4   82 GROUP 4 **** **** 0
 18 CCL4   87 GROUP 4 **** **** 0
 19 CCL4   92 GROUP 4 **** **** 0
 20 CCL4   97 GROUP 4 **** **** 0
 21 CCL4  102 GROUP 4 **** **** 0
 22 CCL4  107 GROUP 4 **** **** 0
 23 CCL4  112 GROUP 4 **** **** 0
 24 CCL4  117 GROUP 4 **** **** 0
 25 CCL4  122 GROUP 4 **** **** 0
 26 CCL4  127 GROUP 4 **** **** 0
 27 CCL4  132 GROUP 4 **** **** 0
 28 CCL4  137 GROUP 4 **** **** 0
 29 CCL4  142 GROUP 4 **** **** 0
 30 CCL4  147 GROUP 4 **** **** 0
 31 CCL4  152 GROUP 4 **** **** 0
 32 CCL4  157 GROUP 4 **** **** 0
 33 CCL4  162 GROUP 4 **** **** 0
 34 CCL4  167 GROUP 4 **** **** 0
 35 CCL4  172 GROUP 4 **** **** 0
 36 CCL4  177 GROUP 4 **** **** 0
 37 CCL4  182 GROUP 4 **** **** 0
 38 CCL4  187 GROUP 4 **** **** 0
 39 CCL4  192 GROUP 4 **** **** 0
 40 CCL4  197 GROUP 4 **** **** 0
 41 CCL4  202 GROUP 4 **** **** 0
 42 CCL4  207 GROUP 4 **** **** 0
 43 CCL4  212 GROUP 4 **** **** 0
 44 CCL4  217 GROUP 4 **** **** 0
 45 CCL4  222 GROUP 4 **** **** 0
 46 CCL4  227 GROUP 4 **** **** 0
 47 CCL4  232 GROUP 4 **** **** 0
 48 CCL4  237 GROUP 4 **** **** 0
 49 CCL4  242 GROUP 4 **** **** 0
 50 CCL4  247 GROUP 4 **** **** 0
 51 CCL4  252 GROUP 4 **** **** 0
 52 CCL4  257 GROUP 4 **** **** 0
 53 CCL4  262 GROUP 4 **** **** 0
 54 CCL4  267 GROUP 4 **** **** 0
 55 CCL4  272 GROUP 4 **** **** 0
 56 CCL4  277 GROUP 4 **** **** 0
 57 CCL4  282 GROUP 4 **** **** 0
 58 CCL4  287 GROUP 4 **** **** 0
 59 CCL4  292 GROUP 4 **** **** 0
 60 CCL4  297 GROUP 4 **** **** 0
 61 CCL4  302 GROUP 4 **** **** 0
 62 CCL4  307 GROUP 4 **** **** 0
 63 CCL4  312 GROUP 4 **** **** 0
 64 CCL4  317 GROUP 4 **** **** 0
 65 CCL4  322 GROUP 4 **** **** 0
 66 CCL4  327 GROUP 4 **** **** 0
 67 CCL4  332 GROUP 4 **** **** 0
 68 CCL4  337 GROUP 4 **** **** 0
 69 CCL4  342 GROUP 4 **** **** 0
 70 CCL4  347 GROUP 4 **** **** 0
 71 CCL4  352 GROUP 4 **** **** 0
 72 CCL4  357 GROUP 4 **** **** 0
 73 CCL4  362 GROUP 4 **** **** 0
 74 CCL4  367 GROUP 4 **** **** 0
 75 CCL4  372 GROUP 4 **** **** 0
 76 CCL4  377 GROUP 4 **** **** 0
 77 CCL4  382 GROUP 4 **** **** 0
 78 CCL4  387 GROUP 4 **** **** 0
 79 CCL4  392 GROUP 4 **** **** 0
 80 CCL4  397 GROUP 4 **** **** 0
 81 CCL4  402 GROUP 4 **** **** 0
 82 CCL4  407 GROUP 4 **** **** 0
 83 CCL4  412 GROUP 4 **** **** 0
 84 CCL4  417 GROUP 4 **** **** 0
 85 CCL4  422 GROUP 4 **** **** 0
 86 CCL4  427 GROUP 4 **** **** 0
 87 CCL4  432 GROUP 4 **** **** 0
 88 CCL4  437 GROUP 4 **** **** 0
 89 CCL4  442 GROUP 4 **** **** 0
 90 CCL4  447 GROUP 4 **** **** 0
 91 CCL4  452 GROUP 4 **** **** 0
 92 CCL4  457 GROUP 4 **** **** 0
 93 CCL4  462 GROUP 4 **** **** 0
 94 CCL4  467 GROUP 4 **** **** 0
 95 CCL4  472 GROUP 4 **** **** 0
 96 CCL4  477 GROUP 4 **** **** 0
 97 CCL4  482 GROUP 4 **** **** 0
 98 CCL4  487 GROUP 4 **** **** 0
 99 CCL4  492 GROUP 4 **** **** 0
100 CCL4  497 GROUP 4 **** **** 0
101 CCL4  502 GROUP 4 **** **** 0
102 CCL4  507 GROUP 4 **** **** 0
103 CCL4  512 GROUP 4 **** **** 0
104 CCL4  517 GROUP 4 **** **** 0
105 CCL4  522 GROUP 4 **** **** 0
106 CCL4  527 GROUP 4 **** **** 0
107 CCL4  532 GROUP 4 **** **** 0
108 CCL4  537 GROUP 4 **** **** 0
109 CCL4  542 GROUP 4 **** **** 0
110 CCL4  547 GROUP 4 **** **** 0
111 CCL4  552 GROUP 4 **** **** 0
112 CCL4  557 GROUP 4 **** **** 0
113 CCL4  562 GROUP 4 **** **** 0
114 CCL4  567 GROUP 4 **** **** 0
115 CCL4  572 GROUP 4 **** **** 0
116 CCL4  577 GROUP 4 **** **** 0
117 CCL4  582 GROUP 4 **** **** 0
118 CCL4  587 GROUP 4 **** **** 0
119 CCL4  592 GROUP 4 **** **** 0
120 CCL4  597 GROUP 4 **** **** 0
121 CCL4  602 GROUP 4 **** **** 0
122 CCL4  607 GROUP 4 **** **** 0
123 CCL4  612 GROUP 4 **** **** 0
124 CCL4  617 GROUP 4 **** **** 0
125 CCL4  622 GROUP 4 **** **** 0
126 CCL4  627 GROUP 4 **** **** 0
127 CCL4  632 GROUP 4 **** **** 0
128 CCL4  637 GROUP 4 **** **** 0
129 CCL4  642 GROUP 4 **** **** 0
130 CCL4  647 GROUP 4 **** **** 0
131 CCL4  652 GROUP 4 **** **** 0
132 CCL4  657 GROUP 4 **** **** 0
133 CCL4  662 GROUP 4 **** **** 0
134 CCL4  667 GROUP 4 **** **** 0
135 CCL4  672 GROUP 4 **** **** 0
136 CCL4  677 GROUP 4 **** **** 0
137 CCL4  682 GROUP 4 **** **** 0
138 CCL4  687 GROUP 4 **** **** 0
139 CCL4  692 GROUP 4 **** **** 0
140 CCL4  697 GROUP 4 **** **** 0
141 CCL4  702 GROUP 4 **** **** 0
142 CCL4  707 GROUP 4 **** **** 0
143 CCL4  712 GROUP 4 **** **** 0
144 CCL4  717 GROUP 4 **** **** 0
145 CCL4  722 GROUP 4 **** **** 0
146 CCL4  727 GROUP 4 **** **** 0
147 CCL4  732 GROUP 4 **** **** 0
148 CCL4  737 GROUP 4 **** **** 0
149 CCL4  742 GROUP 4 **** **** 0
150 CCL4  747 GROUP 4 **** **** 0
151 CCL4  752 GROUP 4 **** **** 0
152 CCL4  757 GROUP 4 **** **** 0
153 CCL4  762 GROUP 4 **** **** 0
154 CCL4  767 GROUP 4 **** **** 0
155 CCL4  772 GROUP 4 **** **** 0
156 CCL4  777 GROUP 4 **** **** 0
157 CCL4  782 GROUP 4 **** **** 0
158 CCL4  787 GROUP 4 **** **** 0
159 CCL4  792 GROUP 4 **** **** 0
160 CCL4  797 GROUP 4 **** **** 0
161 CCL4  802 GROUP 4 **** **** 0
162 CCL4  807 GROUP 4 **** **** 0
163 CCL4  812 GROUP 4 **** **** 0
164 CCL4  817 GROUP 4 **** **** 0
165 CCL4  822 GROUP 4 **** **** 0
166 CCL4  827 GROUP 4 **** **** 0
167 CCL4  832 GROUP 4 **** **** 0
168 CCL4  837 GROUP 4 **** **** 0
169 CCL4  842 GROUP 4 **** **** 0
170 CCL4  847 GROUP 4 **** **** 0
171 CCL4  852 GROUP 4 **** **** 0
172 CCL4  857 GROUP 4 **** **** 0
173 CCL4  862 GROUP 4 **** **** 0
174 CCL4  867 GROUP 4 **** **** 0
175 CCL4  872 GROUP 4 **** **** 0
176 CCL4  877 GROUP 4 **** **** 0
177 CCL4  882 GROUP 4 **** **** 0
178 CCL4  887 GROUP 4 **** **** 0
179 CCL4  892 GROUP 4 **** **** 0
180 CCL4  897 GROUP 4 **** **** 0
181 CCL4  902 GROUP 4 **** **** 0
182 CCL4  907 GROUP 4 **** **** 0
183 CCL4  912 GROUP 4 **** **** 0
184 CCL4  917 GROUP 4 **** **** 0
185 CCL4  922 GROUP 4 **** **** 0
186 CCL4  927 GROUP 4 **** **** 0
187 CCL4  932 GROUP 4 **** **** 0
188 CCL4  937 GROUP 4 **** **** 0
189 CCL4  942 GROUP 4 **** **** 0
190 CCL4  947 GROUP 4 **** **** 0
191 CCL4  952 GROUP 4 **** **** 0
192 CCL4  957 GROUP 4 **** **** 0
193 CCL4  962 GROUP 4 **** **** 0
194 CCL4  967 GROUP 4 **** **** 0
195 CCL4  972 GROUP 4 **** **** 0
196 CCL4  977 GROUP 4 **** **** 0
197 CCL4  982 GROUP 4 **** **** 0
198 CCL4  987 GROUP 4 **** **** 0
199 CCL4  992 GROUP 4 **** **** 0
200 CCL4  997 GROUP 4 **** **** 0
201 CCL4 1002 GROUP 4 **** **** 0
202 CCL4 1007 GROUP 4 **** **** 0
203 CCL4 1012 GROUP 4 **** **** 0
204 CCL4 1017 GROUP 4 **** **** 0
205 CCL4 1022 GROUP 4 **** **** 0
206 CCL4 1027 GROUP 4 **** **** 0
207 CCL4 1032 GROUP 4 **** **** 0
208 CCL4 1037 GROUP 4 **** **** 0
209 CCL4 1042 GROUP 4 **** **** 0
210 CCL4 1047 GROUP 4 **** **** 0
211 CCL4 1052 GROUP 4 **** **** 0
212 CCL4 1057 GROUP 4 **** **** 0
213 CCL4 1062 GROUP 4 **** **** 0
214 CCL4 1067 GROUP 4 **** **** 0
215 CCL4 1072 GROUP 4 **** **** 0
216 CCL4 1077 GROUP 4 **** **** 0
217 CCL4 1082 GROUP 4 **** **** 0
218 CCL4 1087 GROUP 4 **** **** 0
219 CCL4 1092 GROUP 4 **** **** 0
220 CCL4 1097 GROUP 4 **** **** 0
221 CCL4 1102 GROUP 4 **** **** 0
222 CCL4 1107 GROUP 4 **** **** 0
223 CCL4 1112 GROUP 4 **** **** 0
224 CCL4 1117 GROUP 4 **** **** 0
225 CCL4 1122 GROUP 4 **** **** 0
226 CCL4 1127 GROUP 4 **** **** 0
227 CCL4 1132 GROUP 4 **** **** 0
228 CCL4 1137 GROUP 4 **** **** 0
229 CCL4 1142 GROUP 4 **** **** 0
230 CCL4 1147 GROUP 4 **** **** 0
231 CCL4 1152 GROUP 4 **** **** 0
232 CCL4 1157 GROUP 4 **** **** 0
233 CCL4 1162 GROUP 4 **** **** 0
234 CCL4 1167 GROUP 4 **** **** 0
235 CCL4 1172 GROUP 4 **** **** 0
236 CCL4 1177 GROUP 4 **** **** 0
237 CCL4 1182 GROUP 4 **** **** 0
238 CCL4 1187 GROUP 4 **** **** 0
239 CCL4 1192 GROUP 4 **** **** 0
240 CCL4 1197 GROUP 4 **** **** 0
241 CCL4 1202 GROUP 4 **** **** 0
242 CCL4 1207 GROUP 4 **** **** 0
243 CCL4 1212 GROUP 4 **** **** 0
244 CCL4 1217 GROUP 4 **** **** 0
245 CCL4 1222 GROUP 4 **** **** 0
246 CCL4 1227 GROUP 4 **** **** 0
247 CCL4 1232 GROUP 4 **** **** 0
248 CCL4 1237 GROUP 4 **** **** 0
249 CCL4 1242 GROUP 4 **** **** 0
250 CCL4 1247 GROUP 4 **** **** 0
251 CCL4 1252 GROUP 4 **** **** 0
252 CCL4 1257 GROUP 4 **** **** 0
253 CCL4 1262 GROUP 4 **** **** 0
254 CCL4 1267 GROUP 4 **** **** 0
255 CCL4 1272 GROUP 4 **** **** 0
256 CCL4 1277 GROUP 4 **** **** 0
257 CCL4 1282 GROUP 4 **** **** 0
258 CCL4 1287 GROUP 4 **** **** 0
259 CCL4 1292 GROUP 4 **** **** 0
260 CCL4 1297 GROUP 4 **** **** 0
261 CCL4 1302 GROUP 4 **** **** 0
262 CCL4 1307 GROUP 4 **** **** 0
263 CCL4 1312 GROUP 4 **** **** 0
264 CCL4 1317 GROUP 4 **** **** 0
265 CCL4 1322 GROUP 4 **** **** 0
266 CCL4 1327 GROUP 4 **** **** 0
267 CCL4 1332 GROUP 4 **** **** 0
268 CCL4 1337 GROUP 4 **** **** 0
269 CCL4 1342 GROUP 4 **** **** 0
270 CCL4 1347 GROUP 4 **** **** 0
271 CCL4 1352 GROUP 4 **** **** 0
272 CCL4 1357 GROUP 4 **** **** 0
273 CCL4 1362 GROUP 4 **** **** 0
274 CCL4 1367 GROUP 4 **** **** 0
275 CCL4 1372 GROUP 4 **** **** 0
276 CCL4 1377 GROUP 4 **** **** 0
277 CCL4 1382 GROUP 4 **** **** 0
278 CCL4 1387 GROUP 4 **** **** 0
279 CCL4 1392 GROUP 4 **** **** 0
280 CCL4 1397 GROUP 4 **** **** 0
281 CCL4 1402 GROUP 4 **** **** 0
282 CCL4 1407 GROUP 4 **** **** 0
283 CCL4 1412 GROUP 4 **** **** 0
284 CCL4 1417 GROUP 4 **** **** 0
285 CCL4 1422 GROUP 4 **** **** 0
286 CCL4 1427 GROUP 4 **** **** 0
287 CCL4 1432 GROUP 4 **** **** 0
288 CCL4 1437 GROUP 4 **** **** 0
289 CCL4 1442 GROUP 4 **** **** 0
290 CCL4 1447 GROUP 4 **** **** 0
291 CCL4 1452 GROUP 4 **** **** 0
292 CCL4 1457 GROUP 4 **** **** 0
293 CCL4 1462 GROUP 4 **** **** 0
294 CCL4 1467 GROUP 4 **** **** 0
295 CCL4 1472 GROUP 4 **** **** 0
296 CCL4 1477 GROUP 4 **** **** 0
297 CCL4 1482 GROUP 4 **** **** 0
298 CCL4 1487 GROUP 4 **** **** 0
299 CCL4 1492 GROUP 4 **** **** 0
300 CCL4 1497 GROUP 4 **** **** 0
301 CCL4 1502 GROUP 4 **** **** 0
302 CCL4 1507 GROUP 4 **** **** 0
303 CCL4 1512 GROUP 4 **** **** 0
304 CCL4 1517 GROUP 4 **** **** 0
305 CCL4 1522 GROUP 4 **** **** 0
306 CCL4 1527 GROUP 4 **** **** 0
307 CCL4 1532 GROUP 4 **** **** 0
308 CCL4 1537 GROUP 4 **** **** 0
309 CCL4 1542 GROUP 4 **** **** 0
310 CCL4 1547 GROUP 4 **** **** 0
311 CCL4 1552 GROUP 4 **** **** 0
312 CCL4 1557 GROUP 4 **** **** 0
313 CCL4 1562 GROUP 4 **** **** 0
314 CCL4 1567 GROUP 4 **** **** 0
315 CCL4 1572 GROUP 4 **** **** 0
316 CCL4 1577 GROUP 4 **** **** 0
317 CCL4 1582 GROUP 4 **** **** 0
318 CCL4 1587 GROUP 4 **** **** 0
319 CCL4 1592 GROUP 4 **** **** 0
320 CCL4 1597 GROUP 4 **** **** 0
321 CCL4 1602 GROUP 4 **** **** 0
322 CCL4 1607 GROUP 4 **** **** 0
323 CCL4 1612 GROUP 4 **** **** 0
324 CCL4 1617 GROUP 4 **** **** 0
325 CCL4 1622 GROUP 4 **** **** 0
326 CCL4 1627 GROUP 4 **** **** 0
327 CCL4 1632 GROUP 4 **** **** 0
328 CCL4 1637 GROUP 4 **** **** 0
329 CCL4 1642 GROUP 4 **** **** 0
330 CCL4 1647 GROUP 4 **** **** 0
331 CCL4 1652 GROUP 4 **** **** 0
332 CCL4 1657 GROUP 4 **** **** 0
333 CCL4 1662 GROUP 4 **** **** 0
334 CCL4 1667 GROUP 4 **** **** 0
335 CCL4 1672 GROUP 4 **** **** 0
336 CCL4 1677 GROUP 4 **** **** 0
337 CCL4 1682 GROUP 4 **** **** 0
338 CCL4 1687 GROUP 4 **** **** 0
339 CCL4 1692 GROUP 4 **** **** 0
340 CCL4 1697 GROUP 4 **** **** 0
341 CCL4 1702 GROUP 4 **** **** 0
342 CCL4 1707 GROUP 4 **** **** 0
343 CCL4 1712 GROUP 4 **** **** 0
344 CCL4 1717 GROUP 4 **** **** 0
345 CCL4 1722 GROUP 4 **** **** 0
346 CCL4 1727 GROUP 4 **** **** 0
347 CCL4 1732 GROUP 4 **** **** 0
348 CCL4 1737 GROUP 4 **** **** 0
349 CCL4 1742 GROUP 4 **** **** 0
350 CCL4 1747 GROUP 4 **** **** 0
351 CCL4 1752 GROUP 4 **** **** 0
352 CCL4 1757 GROUP 4 **** **** 0
353 CCL4 1762 GROUP 4 **** **** 0
354 CCL4 1767 GROUP 4 **** **** 0
355 CCL4 1772 GROUP 4 **** **** 0
356 CCL4 1777 GROUP 4 **** **** 0
357 CCL4 1782 GROUP 4 **** **** 0
358 CCL4 1787 GROUP 4 **** **** 0
359 CCL4 1792 GROUP 4 **** **** 0
360 CCL4 1797 GROUP 4 **** **** 0
361 CCL4 1802 GROUP 4 **** **** 0
362 CCL4 1807 GROUP 4 **** **** 0
363 CCL4 1812 GROUP 4 **** **** 0
364 CCL4 1817 GROUP 4 **** **** 0
365 CCL4 1822 GROUP 4 **** **** 0
366 CCL4 1827 GROUP 4 **** **** 0
367 CCL4 1832 GROUP 4 **** **** 0
368 CCL4 1837 GROUP 4 **** **** 0
369 CCL4 1842 GROUP 4 **** **** 0
370 CCL4 1847 GROUP 4 **** **** 0
371 CCL4 1852 GROUP 4 **** **** 0

# MOE 2020.09 (io_trps.svl 2020.11)
