@<TRIPOS>MOLECULE
xlinker
2098 1694 409 0 0 
SMALL
USER_CHARGES


@<TRIPOS>ATOM
   1 C        0.6107     0.1194    -0.6298 C.ar    1 <1>    0.0862 
   2 C        1.5388     0.4703     0.4446 C.2     1 <1>    0.3976 
   3 O1       1.3064     1.4637     1.1208 O.2     1 <1>   -0.5700 
   4 C       -0.0086     1.1291    -1.3801 C.ar    1 <1>   -0.1500 
   5 H        0.1916     2.1462    -1.1529 H       1 <1>    0.1500 
   6 C       -0.8783     0.8090    -2.4152 C.ar    1 <1>   -0.1500 
   7 H       -1.3344     1.5798    -2.9828 H       1 <1>    0.1500 
   8 C       -1.1516    -0.5233    -2.7069 C.ar    1 <1>   -0.1500 
   9 H       -1.8126    -0.7667    -3.4974 H       1 <1>    0.1500 
  10 C       -0.5614    -1.5368    -1.9591 C.ar    1 <1>   -0.1500 
  11 H       -0.7795    -2.5507    -2.1783 H       1 <1>    0.1500 
  12 C        0.3107    -1.2199    -0.9256 C.ar    1 <1>   -0.1500 
  13 H        0.7458    -1.9999    -0.3546 H       1 <1>    0.1500 
  14 C        5.0154    -1.8298     1.2911 C.ar    1 <1>    0.0825 
  15 O        6.1266    -2.5850     1.5402 O.3     1 <1>   -0.1650 
  16 C        4.4910    -1.8430     0.0030 C.ar    1 <1>   -0.1500 
  17 H        4.9590    -2.4218    -0.7520 H       1 <1>    0.1500 
  18 C        3.3628    -1.0849    -0.2797 C.ar    1 <1>   -0.1500 
  19 H        2.9819    -1.0772    -1.2687 H       1 <1>    0.1500 
  20 C        2.7338    -0.3264     0.7270 C.ar    1 <1>    0.0862 
  21 C        3.2839    -0.3367     2.0215 C.ar    1 <1>   -0.1500 
  22 H        2.8216     0.2320     2.7883 H       1 <1>    0.1500 
  23 C        4.4215    -1.0811     2.3067 C.ar    1 <1>   -0.1500 
  24 H        4.8315    -1.0865     3.2844 H       1 <1>    0.1500 
  25 C        9.4049    -1.3237     3.7192 C.ar    1 <1>    0.0825 
  26 O       10.5117    -0.9840     4.4756 O.3     1 <1>   -0.1650 
  27 C        8.9127    -2.6178     3.8825 C.ar    1 <1>   -0.1500 
  28 H        9.3765    -3.2763     4.5693 H       1 <1>    0.1500 
  29 C        7.8114    -3.0321     3.1436 C.ar    1 <1>   -0.1500 
  30 H        7.4333    -4.0164     3.2411 H       1 <1>    0.1500 
  31 C        7.2016    -2.1351     2.2718 C.ar    1 <1>    0.0825 
  32 C        7.6733    -0.8287     2.1210 C.ar    1 <1>   -0.1500 
  33 H        7.1929    -0.1619     1.4520 H       1 <1>    0.1500 
  34 C        8.7859    -0.4184     2.8504 C.ar    1 <1>   -0.1500 
  35 H        9.1515     0.5698     2.7472 H       1 <1>    0.1500 
  36 C       12.4828     2.6755     4.5108 C.ar    1 <1>    0.0862 
  37 C       13.1447     3.9795     4.5222 C.2     1 <1>    0.3976 
  38 O3      13.2237     4.6225     3.4825 O.2     1 <1>   -0.5700 
  39 C       12.4488     1.9042     3.3342 C.ar    1 <1>   -0.1500 
  40 H       12.9256     2.2686     2.4588 H       1 <1>    0.1500 
  41 C       11.7912     0.6796     3.3049 C.ar    1 <1>   -0.1500 
  42 H       11.7629     0.1016     2.4168 H       1 <1>    0.1500 
  43 C       11.1646     0.2174     4.4615 C.ar    1 <1>    0.0825 
  44 C       11.1954     0.9529     5.6419 C.ar    1 <1>   -0.1500 
  45 H       10.7170     0.5793     6.5105 H       1 <1>    0.1500 
  46 C       11.8436     2.1798     5.6630 C.ar    1 <1>   -0.1500 
  47 H       11.8401     2.7498     6.5570 H       1 <1>    0.1500 
  48 C       14.6770     5.6320     8.1423 C.ar    1 <1>   -0.1500 
  49 H       15.0417     6.0439     9.0483 H       1 <1>    0.1500 
  50 C       14.8688     4.2820     7.8630 C.ar    1 <1>   -0.1500 
  51 H       15.3857     3.6662     8.5544 H       1 <1>    0.1500 
  52 C       14.3869     3.7418     6.6764 C.ar    1 <1>   -0.1500 
  53 H       14.5490     2.7150     6.4667 H       1 <1>    0.1500 
  54 C       13.6940     4.5444     5.7558 C.ar    1 <1>    0.0862 
  55 C       13.5299     5.9064     6.0415 C.ar    1 <1>   -0.1500 
  56 H       13.0335     6.5280     5.3406 H       1 <1>    0.1500 
  57 C       14.0126     6.4447     7.2289 C.ar    1 <1>   -0.1500 
  58 H       13.8755     7.4748     7.4389 H       1 <1>    0.1500 
  59 CL      -0.6154   -11.3935   -17.1567 Cl      2 CCL4  -0.0812 
  60 C       -0.8676   -11.1181   -15.4211 C.3     2 CCL4   0.3246 
  61 CL      -2.5490   -11.4940   -15.0053 Cl      2 CCL4  -0.0812 
  62 CL      -0.5426    -9.4170   -15.0334 Cl      2 CCL4  -0.0812 
  63 CL       0.2242   -12.1669   -14.4904 Cl      2 CCL4  -0.0812 
  64 CL      -6.7622    18.5773    -9.5423 Cl      3 CCL4  -0.0812 
  65 C       -5.4876    17.8195   -10.5197 C.3     3 CCL4   0.3246 
  66 CL      -6.2109    16.6124   -11.6027 Cl      3 CCL4  -0.0812 
  67 CL      -4.3128    17.0248    -9.4484 Cl      3 CCL4  -0.0812 
  68 CL      -4.6710    19.0624   -11.4907 Cl      3 CCL4  -0.0812 
  69 CL     -11.7065    -9.9993   -11.3403 Cl      4 CCL4  -0.0812 
  70 C      -12.1244   -11.7043   -11.6073 C.3     4 CCL4   0.3246 
  71 CL     -11.6601   -12.6610   -10.1833 Cl      4 CCL4  -0.0812 
  72 CL     -11.2623   -12.3129   -13.0366 Cl      4 CCL4  -0.0812 
  73 CL     -13.8754   -11.8442   -11.8709 Cl      4 CCL4  -0.0812 
  74 CL      -0.9699   -18.5999     3.9711 Cl      5 CCL4  -0.0812 
  75 C       -2.0124   -19.1214     2.6356 C.3     5 CCL4   0.3246 
  76 CL      -1.2251   -18.7394     1.0912 Cl      5 CCL4  -0.0812 
  77 CL      -3.5766   -18.2859     2.7427 Cl      5 CCL4  -0.0812 
  78 CL      -2.2709   -20.8708     2.7429 Cl      5 CCL4  -0.0812 
  79 CL     -11.5673    -1.1940   -12.2099 Cl      6 CCL4  -0.0812 
  80 C      -12.0380     0.3509   -12.9415 C.3     6 CCL4   0.3246 
  81 CL     -13.4797     0.9761   -12.1139 Cl      6 CCL4  -0.0812 
  82 CL     -12.4040     0.1027   -14.6606 Cl      6 CCL4  -0.0812 
  83 CL     -10.7018     1.5118   -12.7850 Cl      6 CCL4  -0.0812 
  84 CL      -5.6240   -12.1197   -13.2807 Cl      7 CCL4  -0.0812 
  85 C       -6.1555   -13.5300   -12.3456 C.3     7 CCL4   0.3246 
  86 CL      -5.0918   -13.7526   -10.9446 Cl      7 CCL4  -0.0812 
  87 CL      -6.0788   -14.9767   -13.3651 Cl      7 CCL4  -0.0812 
  88 CL      -7.8247   -13.2788   -11.7972 Cl      7 CCL4  -0.0812 
  89 CL      -7.2408    22.2451   -11.3140 Cl      8 CCL4  -0.0812 
  90 C       -8.2414    22.9352   -10.0185 C.3     8 CCL4   0.3246 
  91 CL      -7.2891    24.1174    -9.0978 Cl      8 CCL4  -0.0812 
  92 CL      -8.7810    21.6359    -8.9340 Cl      8 CCL4  -0.0812 
  93 CL      -9.6564    23.7424   -10.7283 Cl      8 CCL4  -0.0812 
  94 CL       4.9096    -4.6377   -15.2038 Cl      9 CCL4  -0.0812 
  95 C        5.6622    -3.5534   -16.3889 C.3     9 CCL4   0.3246 
  96 CL       5.0455    -1.9060   -16.1657 Cl      9 CCL4  -0.0812 
  97 CL       5.2679    -4.1110   -18.0247 Cl      9 CCL4  -0.0812 
  98 CL       7.4230    -3.5584   -16.1644 Cl      9 CCL4  -0.0812 
  99 CL      -2.9016     0.5073   -16.5561 Cl     10 CCL4  -0.0812 
 100 C       -4.6526     0.7627   -16.6706 C.3    10 CCL4   0.3246 
 101 CL      -5.5060    -0.7146   -16.1832 Cl     10 CCL4  -0.0812 
 102 CL      -5.0680     1.1622   -18.3491 Cl     10 CCL4  -0.0812 
 103 CL      -5.1312     2.0927   -15.5955 Cl     10 CCL4  -0.0812 
 104 CL      -7.5421    -2.0714    20.8357 Cl     11 CCL4  -0.0812 
 105 C       -8.5129    -0.6056    20.5807 C.3    11 CCL4   0.3246 
 106 CL      -8.6139     0.3071    22.1009 Cl     11 CCL4  -0.0812 
 107 CL     -10.1474    -1.0635    20.0572 Cl     11 CCL4  -0.0812 
 108 CL      -7.7522     0.4046    19.3329 Cl     11 CCL4  -0.0812 
 109 CL      -6.8498   -13.5883     4.1491 Cl     12 CCL4  -0.0812 
 110 C       -7.8711   -14.6461     3.1574 C.3    12 CCL4   0.3246 
 111 CL      -8.8148   -13.6554     2.0241 Cl     12 CCL4  -0.0812 
 112 CL      -8.9768   -15.5591     4.2070 Cl     12 CCL4  -0.0812 
 113 CL      -6.8416   -15.7768     2.2534 Cl     12 CCL4  -0.0812 
 114 CL      -4.4194   -14.0169    23.4702 Cl     13 CCL4  -0.0812 
 115 C       -3.3348   -15.3803    23.1287 C.3    13 CCL4   0.3246 
 116 CL      -3.6921   -16.7188    24.2390 Cl     13 CCL4  -0.0812 
 117 CL      -1.6489   -14.8647    23.3396 Cl     13 CCL4  -0.0812 
 118 CL      -3.5811   -15.9260    21.4589 Cl     13 CCL4  -0.0812 
 119 CL      -6.3644    -7.8605    21.8713 Cl     14 CCL4  -0.0812 
 120 C       -6.6415    -9.4840    22.5382 C.3    14 CCL4   0.3246 
 121 CL      -8.3545    -9.6576    22.9581 Cl     14 CCL4  -0.0812 
 122 CL      -5.6507    -9.7117    23.9922 Cl     14 CCL4  -0.0812 
 123 CL      -6.2037   -10.7118    21.3348 Cl     14 CCL4  -0.0812 
 124 CL      31.1659   -12.1620    20.2008 Cl     15 CCL4  -0.0812 
 125 C       32.4669   -11.3684    21.1132 C.3    15 CCL4   0.3246 
 126 CL      32.2645   -11.7023    22.8471 Cl     15 CCL4  -0.0812 
 127 CL      32.4010    -9.6154    20.8358 Cl     15 CCL4  -0.0812 
 128 CL      34.0348   -11.9953    20.5661 Cl     15 CCL4  -0.0812 
 129 CL      -7.4537   -16.1237   -16.3771 Cl     16 CCL4  -0.0812 
 130 C       -8.7484   -14.9355   -16.1143 C.3    16 CCL4   0.3246 
 131 CL      -8.0594   -13.2973   -16.0457 Cl     16 CCL4  -0.0812 
 132 CL      -9.5761   -15.2917   -14.5829 Cl     16 CCL4  -0.0812 
 133 CL      -9.9109   -15.0372   -17.4536 Cl     16 CCL4  -0.0812 
 134 CL       7.7284   -12.7247   -11.1354 Cl     17 CCL4  -0.0812 
 135 C        8.0741   -14.1871   -12.0829 C.3    17 CCL4   0.3246 
 136 CL       7.2376   -15.5717   -11.3565 Cl     17 CCL4  -0.0812 
 137 CL       9.8219   -14.4970   -12.0856 Cl     17 CCL4  -0.0812 
 138 CL       7.5085   -13.9631   -13.7520 Cl     17 CCL4  -0.0812 
 139 CL       6.7054    18.9347    -9.5609 Cl     18 CCL4  -0.0812 
 140 C        5.9923    20.4889   -10.0399 C.3    18 CCL4   0.3246 
 141 CL       6.4337    20.8554   -11.7201 Cl     18 CCL4  -0.0812 
 142 CL       6.5993    21.7681    -8.9693 Cl     18 CCL4  -0.0812 
 143 CL       4.2255    20.3985    -9.9098 Cl     18 CCL4  -0.0812 
 144 CL       7.3553   -13.2588    -5.5444 Cl     19 CCL4  -0.0812 
 145 C        6.1698   -14.3860    -6.2302 C.3    19 CCL4   0.3246 
 146 CL       6.2851   -14.3469    -8.0006 Cl     19 CCL4  -0.0812 
 147 CL       4.5321   -13.9177    -5.7197 Cl     19 CCL4  -0.0812 
 148 CL       6.5212   -16.0259    -5.6545 Cl     19 CCL4  -0.0812 
 149 CL       6.0685   -17.3248    19.8399 Cl     20 CCL4  -0.0812 
 150 C        7.5159   -16.3686    19.4632 C.3    20 CCL4   0.3246 
 151 CL       8.2995   -15.8639    20.9727 Cl     20 CCL4  -0.0812 
 152 CL       7.0557   -14.9311    18.5275 Cl     20 CCL4  -0.0812 
 153 CL       8.6413   -17.3620    18.5174 Cl     20 CCL4  -0.0812 
 154 CL      -6.9103    19.5170    -3.6330 Cl     21 CCL4  -0.0812 
 155 C       -7.1536    19.4112    -5.3895 C.3    21 CCL4   0.3246 
 156 CL      -8.8801    19.2059    -5.7483 Cl     21 CCL4  -0.0812 
 157 CL      -6.2518    18.0200    -6.0285 Cl     21 CCL4  -0.0812 
 158 CL      -6.5772    20.9059    -6.1513 Cl     21 CCL4  -0.0812 
 159 CL      -4.6888   -11.5114    -1.8711 Cl     22 CCL4  -0.0812 
 160 C       -3.4302   -11.9647    -0.7092 C.3    22 CCL4   0.3246 
 161 CL      -4.2042   -12.5474     0.7809 Cl     22 CCL4  -0.0812 
 162 CL      -2.4158   -10.5537    -0.3443 Cl     22 CCL4  -0.0812 
 163 CL      -2.4195   -13.2426    -1.4142 Cl     22 CCL4  -0.0812 
 164 CL       7.5384    21.1615    -3.8632 Cl     23 CCL4  -0.0812 
 165 C        6.9289    19.8070    -4.8356 C.3    23 CCL4   0.3246 
 166 CL       8.1753    19.3026    -5.9962 Cl     23 CCL4  -0.0812 
 167 CL       5.4794    20.3120    -5.7292 Cl     23 CCL4  -0.0812 
 168 CL       6.5245    18.4554    -3.7537 Cl     23 CCL4  -0.0812 
 169 CL      -4.5451   -14.8246    -6.7662 Cl     24 CCL4  -0.0812 
 170 C       -3.4008   -13.4927    -6.4999 C.3    24 CCL4   0.3246 
 171 CL      -2.9118   -12.8291    -8.0716 Cl     24 CCL4  -0.0812 
 172 CL      -1.9758   -14.1051    -5.6334 Cl     24 CCL4  -0.0812 
 173 CL      -4.1700   -12.2125    -5.5350 Cl     24 CCL4  -0.0812 
 174 CL      -6.5499   -12.0843    -8.1459 Cl     25 CCL4  -0.0812 
 175 C       -8.1018   -11.2489    -7.9751 C.3    25 CCL4   0.3246 
 176 CL      -7.9298    -9.9067    -6.8253 Cl     25 CCL4  -0.0812 
 177 CL      -9.3121   -12.3969    -7.3695 Cl     25 CCL4  -0.0812 
 178 CL      -8.6074   -10.6173    -9.5563 Cl     25 CCL4  -0.0812 
 179 CL      -1.9290    20.5694    -9.6669 Cl     26 CCL4  -0.0812 
 180 C       -2.9458    21.0649    -8.3003 C.3    26 CCL4   0.3246 
 181 CL      -4.5297    21.5944    -8.8990 Cl     26 CCL4  -0.0812 
 182 CL      -2.1673    22.4094    -7.4491 Cl     26 CCL4  -0.0812 
 183 CL      -3.1516    19.6943    -7.1889 Cl     26 CCL4  -0.0812 
 184 CL      -9.8275    -1.3283    -3.7523 Cl     27 CCL4  -0.0812 
 185 C       -9.7974    -0.2193    -2.3646 C.3    27 CCL4   0.3246 
 186 CL      -9.6050    -1.1451    -0.8648 Cl     27 CCL4  -0.0812 
 187 CL     -11.3209     0.6858    -2.2892 Cl     27 CCL4  -0.0812 
 188 CL      -8.4405     0.9116    -2.5433 Cl     27 CCL4  -0.0812 
 189 CL      -1.6609    23.4346    -2.9116 Cl     28 CCL4  -0.0812 
 190 C       -2.4451    21.9090    -3.3696 C.3    28 CCL4   0.3246 
 191 CL      -3.8183    22.2447    -4.4387 Cl     28 CCL4  -0.0812 
 192 CL      -3.0416    21.0916    -1.9155 Cl     28 CCL4  -0.0812 
 193 CL      -1.2752    20.8653    -4.2073 Cl     28 CCL4  -0.0812 
 194 CL       0.3260    -8.4789    -4.9114 Cl     29 CCL4  -0.0812 
 195 C        0.3452   -10.2339    -5.1932 C.3    29 CCL4   0.3246 
 196 CL      -0.8496   -10.6253    -6.4397 Cl     29 CCL4  -0.0812 
 197 CL      -0.0658   -11.0896    -3.6902 Cl     29 CCL4  -0.0812 
 198 CL       1.9562   -10.7442    -5.7443 Cl     29 CCL4  -0.0812 
 199 CL      -7.1132   -14.3398    -1.1311 Cl     30 CCL4  -0.0812 
 200 C       -5.9969   -15.5040    -1.8719 C.3    30 CCL4   0.3246 
 201 CL      -6.8965   -16.9310    -2.4227 Cl     30 CCL4  -0.0812 
 202 CL      -4.7769   -15.9976    -0.6837 Cl     30 CCL4  -0.0812 
 203 CL      -5.1937   -14.7438    -3.2556 Cl     30 CCL4  -0.0812 
 204 CL       5.3892   -10.8885    -3.7101 Cl     31 CCL4  -0.0812 
 205 C        6.3090   -11.4206    -2.2879 C.3    31 CCL4   0.3246 
 206 CL       8.0019   -10.9197    -2.4660 Cl     31 CCL4  -0.0812 
 207 CL       6.2276   -13.1891    -2.1643 Cl     31 CCL4  -0.0812 
 208 CL       5.6255   -10.6927    -0.8172 Cl     31 CCL4  -0.0812 
 209 CL      35.6952   -15.3570    -5.5914 Cl     32 CCL4  -0.0812 
 210 C       33.9950   -15.8262    -5.3923 C.3    32 CCL4   0.3246 
 211 CL      33.1834   -15.8174    -6.9723 Cl     32 CCL4  -0.0812 
 212 CL      33.1870   -14.6753    -4.3099 Cl     32 CCL4  -0.0812 
 213 CL      33.9098   -17.4546    -4.6903 Cl     32 CCL4  -0.0812 
 214 CL       6.0376    -1.0650    -6.6134 Cl     33 CCL4  -0.0812 
 215 C        6.6624    -1.3630    -8.2497 C.3    33 CCL4   0.3246 
 216 CL       7.7062    -0.0141    -8.7376 Cl     33 CCL4  -0.0812 
 217 CL       5.3077    -1.5021    -9.3886 Cl     33 CCL4  -0.0812 
 218 CL       7.5997    -2.8708    -8.2613 Cl     33 CCL4  -0.0812 
 219 CL      -4.3033    18.1725     0.0003 Cl     34 CCL4  -0.0812 
 220 C       -5.8191    18.8885     0.5854 C.3    34 CCL4   0.3246 
 221 CL      -5.9131    18.7137     2.3485 Cl     34 CCL4  -0.0812 
 222 CL      -7.1911    18.0544    -0.1659 Cl     34 CCL4  -0.0812 
 223 CL      -5.8769    20.6100     0.1586 Cl     34 CCL4  -0.0812 
 224 CL      -8.0154    -7.0781   -14.5456 Cl     35 CCL4  -0.0812 
 225 C       -8.0439    -8.1618   -13.1403 C.3    35 CCL4   0.3246 
 226 CL      -8.8753    -9.6709   -13.5641 Cl     35 CCL4  -0.0812 
 227 CL      -8.8982    -7.3688   -11.8006 Cl     35 CCL4  -0.0812 
 228 CL      -6.3809    -8.5330   -12.6526 Cl     35 CCL4  -0.0812 
 229 CL      -8.2149    -3.2126    -7.0081 Cl     36 CCL4  -0.0812 
 230 C       -8.6412    -3.6497    -8.6768 C.3    36 CCL4   0.3246 
 231 CL      -9.2892    -5.3026    -8.7162 Cl     36 CCL4  -0.0812 
 232 CL      -7.1943    -3.5593    -9.7035 Cl     36 CCL4  -0.0812 
 233 CL      -9.8724    -2.5240    -9.2801 Cl     36 CCL4  -0.0812 
 234 CL     -12.4699    -4.3790   -10.8470 Cl     37 CCL4  -0.0812 
 235 C      -13.5212    -5.5587   -10.0431 C.3    37 CCL4   0.3246 
 236 CL     -12.5647    -6.9801    -9.5892 Cl     37 CCL4  -0.0812 
 237 CL     -14.8248    -6.0465   -11.1483 Cl     37 CCL4  -0.0812 
 238 CL     -14.2148    -4.8311    -8.5814 Cl     37 CCL4  -0.0812 
 239 CL       8.1962    -7.8681    -0.5835 Cl     38 CCL4  -0.0812 
 240 C        7.7778    -6.8079     0.7747 C.3    38 CCL4   0.3246 
 241 CL       6.8699    -7.7284     1.9872 Cl     38 CCL4  -0.0812 
 242 CL       6.7806    -5.4620     0.1885 Cl     38 CCL4  -0.0812 
 243 CL       9.2646    -6.1791     1.5092 Cl     38 CCL4  -0.0812 
 244 CL      -7.7307    -3.6507   -15.6689 Cl     39 CCL4  -0.0812 
 245 C       -9.0480    -2.9775   -14.6849 C.3    39 CCL4   0.3246 
 246 CL      -8.9902    -3.6812   -13.0532 Cl     39 CCL4  -0.0812 
 247 CL     -10.6105    -3.3615   -15.4393 Cl     39 CCL4  -0.0812 
 248 CL      -8.8630    -1.2136   -14.5830 Cl     39 CCL4  -0.0812 
 249 CL     -14.8826     0.8204    -7.6343 Cl     40 CCL4  -0.0812 
 250 C      -13.9654    -0.6889    -7.4412 C.3    40 CCL4   0.3246 
 251 CL     -14.9623    -1.8870    -6.5882 Cl     40 CCL4  -0.0812 
 252 CL     -12.4891    -0.3748    -6.5058 Cl     40 CCL4  -0.0812 
 253 CL     -13.5265    -1.3145    -9.0428 Cl     40 CCL4  -0.0812 
 254 CL      29.3446    -2.3405   -16.6080 Cl     41 CCL4  -0.0812 
 255 C       28.3883    -2.6828   -15.1503 C.3    41 CCL4   0.3246 
 256 CL      27.1060    -3.8462   -15.5477 Cl     41 CCL4  -0.0812 
 257 CL      27.6552    -1.1785   -14.5507 Cl     41 CCL4  -0.0812 
 258 CL      29.4472    -3.3669   -13.8990 Cl     41 CCL4  -0.0812 
 259 CL     -12.5097    -9.0367   -14.8338 Cl     42 CCL4  -0.0812 
 260 C      -12.3343    -7.2956   -15.1385 C.3    42 CCL4   0.3246 
 261 CL     -13.8921    -6.6239   -15.6648 Cl     42 CCL4  -0.0812 
 262 CL     -11.1188    -7.0354   -16.4075 Cl     42 CCL4  -0.0812 
 263 CL     -11.8168    -6.4856   -13.6469 Cl     42 CCL4  -0.0812 
 264 CL       7.2411    -9.5123    -9.2736 Cl     43 CCL4  -0.0812 
 265 C        5.5484    -9.5312    -8.7458 C.3    43 CCL4   0.3246 
 266 CL       5.3238   -10.7926    -7.5187 Cl     43 CCL4  -0.0812 
 267 CL       4.4993    -9.8585   -10.1393 Cl     43 CCL4  -0.0812 
 268 CL       5.1304    -7.9559    -8.0504 Cl     43 CCL4  -0.0812 
 269 CL       7.1596    -5.9653   -10.2645 Cl     44 CCL4  -0.0812 
 270 C        6.4556    -5.5832   -11.8458 C.3    44 CCL4   0.3246 
 271 CL       5.5935    -7.0066   -12.4711 Cl     44 CCL4  -0.0812 
 272 CL       7.7513    -5.1309   -12.9683 Cl     44 CCL4  -0.0812 
 273 CL       5.3273    -4.2233   -11.6759 Cl     44 CCL4  -0.0812 
 274 CL      -3.9578    -2.7848    -2.9201 Cl     45 CCL4  -0.0812 
 275 C       -5.5384    -3.2739    -2.2817 C.3    45 CCL4   0.3246 
 276 CL      -5.3201    -4.5791    -1.1015 Cl     45 CCL4  -0.0812 
 277 CL      -6.5772    -3.8306    -3.6107 Cl     45 CCL4  -0.0812 
 278 CL      -6.2984    -1.8911    -1.4822 Cl     45 CCL4  -0.0812 
 279 CL      -6.1164    -6.0354    -6.9564 Cl     46 CCL4  -0.0812 
 280 C       -5.2854    -7.0212    -8.1736 C.3    46 CCL4   0.3246 
 281 CL      -6.4945    -7.7457    -9.2430 Cl     46 CCL4  -0.0812 
 282 CL      -4.3630    -8.3020    -7.3585 Cl     46 CCL4  -0.0812 
 283 CL      -4.1895    -6.0073    -9.1387 Cl     46 CCL4  -0.0812 
 284 CL      -1.2633    -3.2140    -8.0163 Cl     47 CCL4  -0.0812 
 285 C       -1.8702    -4.0043    -6.5459 C.3    47 CCL4   0.3246 
 286 CL      -3.6045    -3.6751    -6.3773 Cl     47 CCL4  -0.0812 
 287 CL      -1.0075    -3.3606    -5.1333 Cl     47 CCL4  -0.0812 
 288 CL      -1.6125    -5.7599    -6.6502 Cl     47 CCL4  -0.0812 
 289 CL      -7.9688   -10.2246    -1.4433 Cl     48 CCL4  -0.0812 
 290 C       -8.9650   -11.0303    -2.6720 C.3    48 CCL4   0.3246 
 291 CL      -9.8638    -9.8129    -3.6049 Cl     48 CCL4  -0.0812 
 292 CL     -10.1105   -12.1201    -1.8637 Cl     48 CCL4  -0.0812 
 293 CL      -7.9215   -11.9643    -3.7674 Cl     48 CCL4  -0.0812 
 294 CL     -11.6507    -3.8355    -6.2164 Cl     49 CCL4  -0.0812 
 295 C      -11.7925    -5.1977    -5.0882 C.3    49 CCL4   0.3246 
 296 CL     -13.5090    -5.5970    -4.8625 Cl     49 CCL4  -0.0812 
 297 CL     -11.0757    -4.7510    -3.5276 Cl     49 CCL4  -0.0812 
 298 CL     -10.9309    -6.6045    -5.7435 Cl     49 CCL4  -0.0812 
 299 CL      -5.4787     1.6934    -6.5976 Cl     50 CCL4  -0.0812 
 300 C       -5.1356    -0.0212    -6.3077 C.3    50 CCL4   0.3246 
 301 CL      -3.4539    -0.2026    -5.7672 Cl     50 CCL4  -0.0812 
 302 CL      -5.3790    -0.9340    -7.8090 Cl     50 CCL4  -0.0812 
 303 CL      -6.2320    -0.6374    -5.0573 Cl     50 CCL4  -0.0812 
 304 CL      30.0991    -1.9729    -3.3582 Cl     51 CCL4  -0.0812 
 305 C       29.5742    -2.4789    -1.7412 C.3    51 CCL4   0.3246 
 306 CL      28.3854    -3.7912    -1.8882 Cl     51 CCL4  -0.0812 
 307 CL      28.8380    -1.0987    -0.9018 Cl     51 CCL4  -0.0812 
 308 CL      30.9787    -3.0513    -0.8195 Cl     51 CCL4  -0.0812 
 309 CL      -8.1881    -6.6899    -2.4006 Cl     52 CCL4  -0.0812 
 310 C       -8.7830    -6.4329    -0.7482 C.3    52 CCL4   0.3246 
 311 CL      -7.6359    -7.1378     0.4086 Cl     52 CCL4  -0.0812 
 312 CL     -10.3678    -7.2137    -0.5691 Cl     52 CCL4  -0.0812 
 313 CL      -8.9393    -4.6919    -0.4370 Cl     52 CCL4  -0.0812 
 314 CL      -4.5988    -7.9577    -1.6369 Cl     53 CCL4  -0.0812 
 315 C       -4.4036    -8.0612    -3.3972 C.3    53 CCL4   0.3246 
 316 CL      -2.9864    -9.0536    -3.7798 Cl     53 CCL4  -0.0812 
 317 CL      -4.1675    -6.4349    -4.0605 Cl     53 CCL4  -0.0812 
 318 CL      -5.8520    -8.7940    -4.1146 Cl     53 CCL4  -0.0812 
 319 CL       1.8600    -5.1062    -6.4249 Cl     54 CCL4  -0.0812 
 320 C        3.0855    -3.8292    -6.5234 C.3    54 CCL4   0.3246 
 321 CL       2.3832    -2.3923    -7.2942 Cl     54 CCL4  -0.0812 
 322 CL       4.4592    -4.4110    -7.4840 Cl     54 CCL4  -0.0812 
 323 CL       3.6371    -3.4107    -4.8880 Cl     54 CCL4  -0.0812 
 324 CL      29.8716    -9.2229    -5.7616 Cl     55 CCL4  -0.0812 
 325 C       30.5381   -10.2507    -7.0475 C.3    55 CCL4   0.3246 
 326 CL      29.4519   -10.2220    -8.4531 Cl     55 CCL4  -0.0812 
 327 CL      30.7008   -11.9176    -6.4536 Cl     55 CCL4  -0.0812 
 328 CL      32.1333    -9.6388    -7.5223 Cl     55 CCL4  -0.0812 
 329 CL      -1.6276    -5.4200    -1.7882 Cl     56 CCL4  -0.0812 
 330 C       -0.8257    -6.1783    -0.3984 C.3    56 CCL4   0.3246 
 331 CL       0.4923    -5.1261     0.1642 Cl     56 CCL4  -0.0812 
 332 CL      -0.1693    -7.7521    -0.8897 Cl     56 CCL4  -0.0812 
 333 CL      -1.9978    -6.4151     0.9147 Cl     56 CCL4  -0.0812 
 334 CL       2.4002    -9.5119   -17.1470 Cl     57 CCL4  -0.0812 
 335 C        3.1018    -7.9436   -16.7014 C.3    57 CCL4   0.3246 
 336 CL       3.0813    -6.8686   -18.1149 Cl     57 CCL4  -0.0812 
 337 CL       4.7692    -8.1783   -16.1433 Cl     57 CCL4  -0.0812 
 338 CL       2.1564    -7.2164   -15.3911 Cl     57 CCL4  -0.0812 
 339 CL      -2.1677   -14.7538   -13.0434 Cl     58 CCL4  -0.0812 
 340 C       -2.1005   -16.1076   -11.8963 C.3    58 CCL4   0.3246 
 341 CL      -2.0640   -15.4804   -10.2384 Cl     58 CCL4  -0.0812 
 342 CL      -0.6364   -17.0653   -12.1918 Cl     58 CCL4  -0.0812 
 343 CL      -3.5337   -17.1333   -12.1036 Cl     58 CCL4  -0.0812 
 344 CL       4.2485   -13.5019     1.8650 Cl     59 CCL4  -0.0812 
 345 C        4.8508   -14.8951     2.7917 C.3    59 CCL4   0.3246 
 346 CL       3.7226   -15.2588     4.1126 Cl     59 CCL4  -0.0812 
 347 CL       6.4449   -14.5185     3.4733 Cl     59 CCL4  -0.0812 
 348 CL       4.9933   -16.3071     1.7242 Cl     59 CCL4  -0.0812 
 349 CL       3.6251   -12.0858    20.2287 Cl     60 CCL4  -0.0812 
 350 C        5.1871   -11.3098    19.9012 C.3    60 CCL4   0.3246 
 351 CL       6.4917   -12.2322    20.6757 Cl     60 CCL4  -0.0812 
 352 CL       5.1670    -9.6661    20.5603 Cl     60 CCL4  -0.0812 
 353 CL       5.4615   -11.2431    18.1479 Cl     60 CCL4  -0.0812 
 354 CL       2.7883   -18.3441   -13.3024 Cl     61 CCL4  -0.0812 
 355 C        3.3895   -16.6761   -13.2018 C.3    61 CCL4   0.3246 
 356 CL       3.6710   -16.2568   -11.4987 Cl     61 CCL4  -0.0812 
 357 CL       2.1914   -15.5670   -13.9026 Cl     61 CCL4  -0.0812 
 358 CL       4.9114   -16.5406   -14.1067 Cl     61 CCL4  -0.0812 
 359 CL       6.0103   -10.5560   -13.5576 Cl     62 CCL4  -0.0812 
 360 C        4.4659   -11.3940   -13.8197 C.3    62 CCL4   0.3246 
 361 CL       3.1280   -10.2544   -13.5746 Cl     62 CCL4  -0.0812 
 362 CL       4.3093   -12.7346   -12.6659 Cl     62 CCL4  -0.0812 
 363 CL       4.4127   -12.0302   -15.4775 Cl     62 CCL4  -0.0812 
 364 CL       2.9202   -15.5876   -19.7860 Cl     63 CCL4  -0.0812 
 365 C        3.1301   -15.5017   -18.0230 C.3    63 CCL4   0.3246 
 366 CL       2.8517   -17.1073   -17.3158 Cl     63 CCL4  -0.0812 
 367 CL       1.9675   -14.3430   -17.3428 Cl     63 CCL4  -0.0812 
 368 CL       4.7831   -14.9739   -17.6432 Cl     63 CCL4  -0.0812 
 369 CL      -0.1027    -2.3871   -12.9526 Cl     64 CCL4  -0.0812 
 370 C        1.5468    -2.9249   -12.5859 C.3    64 CCL4   0.3246 
 371 CL       1.8677    -2.7187   -10.8512 Cl     64 CCL4  -0.0812 
 372 CL       2.7068    -1.9639   -13.5226 Cl     64 CCL4  -0.0812 
 373 CL       1.7110    -4.6352   -13.0250 Cl     64 CCL4  -0.0812 
 374 CL      -0.7764    -2.2960   -16.5680 Cl     65 CCL4  -0.0812 
 375 C        0.0857    -3.7828   -17.0049 C.3    65 CCL4   0.3246 
 376 CL      -0.5933    -5.1424   -16.0877 Cl     65 CCL4  -0.0812 
 377 CL       1.8062    -3.6071   -16.6188 Cl     65 CCL4  -0.0812 
 378 CL      -0.0883    -4.0798   -18.7457 Cl     65 CCL4  -0.0812 
 379 CL       3.2349   -13.3724    -9.2529 Cl     66 CCL4  -0.0812 
 380 C        1.5081   -13.0602    -9.4943 C.3    66 CCL4   0.3246 
 381 CL       0.5927   -13.7568    -8.1456 Cl     66 CCL4  -0.0812 
 382 CL       0.9801   -13.7910   -11.0223 Cl     66 CCL4  -0.0812 
 383 CL       1.2290   -11.3130    -9.5521 Cl     66 CCL4  -0.0812 
 384 CL      -1.8151    -9.2365    -9.5744 Cl     67 CCL4  -0.0812 
 385 C       -2.7192    -9.9793   -10.9049 C.3    67 CCL4   0.3246 
 386 CL      -4.3651   -10.3478   -10.3612 Cl     67 CCL4  -0.0812 
 387 CL      -1.9130   -11.4771   -11.4105 Cl     67 CCL4  -0.0812 
 388 CL      -2.7849    -8.8477   -12.2687 Cl     67 CCL4  -0.0812 
 389 CL       0.9286    23.2746    -6.2084 Cl     68 CCL4  -0.0812 
 390 C        1.8382    22.4139    -7.4675 C.3    68 CCL4   0.3246 
 391 CL       1.0797    22.6856    -9.0491 Cl     68 CCL4  -0.0812 
 392 CL       1.8449    20.6731    -7.1058 Cl     68 CCL4  -0.0812 
 393 CL       3.5027    23.0274    -7.5093 Cl     68 CCL4  -0.0812 
 394 CL      34.1268   -19.2654    -1.3398 Cl     69 CCL4  -0.0812 
 395 C       33.5936   -18.4320     0.1345 C.3    69 CCL4   0.3246 
 396 CL      33.9750   -16.7024     0.0096 Cl     69 CCL4  -0.0812 
 397 CL      31.8404   -18.6374     0.3297 Cl     69 CCL4  -0.0812 
 398 CL      34.4286   -19.1225     1.5400 Cl     69 CCL4  -0.0812 
 399 CL       1.3821    -7.6775     2.6381 Cl     70 CCL4  -0.0812 
 400 C        2.6241    -8.7320     1.9339 C.3    70 CCL4   0.3246 
 401 CL       3.5185    -7.8269     0.7008 Cl     70 CCL4  -0.0812 
 402 CL       1.8482   -10.1424     1.1849 Cl     70 CCL4  -0.0812 
 403 CL       3.7445    -9.2727     3.2030 Cl     70 CCL4  -0.0812 
 404 CL      -2.2920     1.6789    -8.4708 Cl     71 CCL4  -0.0812 
 405 C       -0.6733     1.1692    -8.9843 C.3    71 CCL4   0.3246 
 406 CL       0.2511     0.6370    -7.5638 Cl     71 CCL4  -0.0812 
 407 CL       0.1524     2.5328    -9.7624 Cl     71 CCL4  -0.0812 
 408 CL      -0.8110    -0.1676   -10.1431 Cl     71 CCL4  -0.0812 
 409 CL       3.5336   -15.2709    -1.4262 Cl     72 CCL4  -0.0812 
 410 C        2.0928   -14.2779    -1.7145 C.3    72 CCL4   0.3246 
 411 CL       1.5586   -14.4752    -3.3965 Cl     72 CCL4  -0.0812 
 412 CL       2.4805   -12.5718    -1.4162 Cl     72 CCL4  -0.0812 
 413 CL       0.8021   -14.7975    -0.6140 Cl     72 CCL4  -0.0812 
 414 CL       4.1397    20.7629    -1.4916 Cl     73 CCL4  -0.0812 
 415 C        2.8105    21.0450    -2.6366 C.3    73 CCL4   0.3246 
 416 CL       1.3941    21.6669    -1.7623 Cl     73 CCL4  -0.0812 
 417 CL       2.3910    19.5197    -3.4477 Cl     73 CCL4  -0.0812 
 418 CL       3.3229    22.2364    -3.8473 Cl     73 CCL4  -0.0812 
 419 CL       3.7737    -7.7156    -4.8622 Cl     74 CCL4  -0.0812 
 420 C        3.5739    -7.5723    -3.1061 C.3    74 CCL4   0.3246 
 421 CL       2.6042    -6.1317    -2.7327 Cl     74 CCL4  -0.0812 
 422 CL       5.1725    -7.4242    -2.3547 Cl     74 CCL4  -0.0812 
 423 CL       2.7558    -9.0174    -2.4778 Cl     74 CCL4  -0.0812 
 424 CL      -0.4381    -2.0869     2.5099 Cl     75 CCL4  -0.0812 
 425 C       -2.1067    -1.6861     2.0449 C.3    75 CCL4   0.3246 
 426 CL      -2.1557    -0.0582     1.3469 Cl     75 CCL4  -0.0812 
 427 CL      -3.1514    -1.7483     3.4792 Cl     75 CCL4  -0.0812 
 428 CL      -2.6868    -2.8513     0.8373 Cl     75 CCL4  -0.0812 
 429 CL      -0.5141    -7.6653    21.2487 Cl     76 CCL4  -0.0812 
 430 C       -2.2383    -7.6373    20.8223 C.3    76 CCL4   0.3246 
 431 CL      -3.0161    -6.2093    21.5344 Cl     76 CCL4  -0.0812 
 432 CL      -3.0164    -9.1002    21.4538 Cl     76 CCL4  -0.0812 
 433 CL      -2.4105    -7.5808    19.0558 Cl     76 CCL4  -0.0812 
 434 CL       2.8584    -6.1993   -10.1123 Cl     77 CCL4  -0.0812 
 435 C        1.3330    -7.0899    -9.9745 C.3    77 CCL4   0.3246 
 436 CL       1.3388    -8.0121    -8.4566 Cl     77 CCL4  -0.0812 
 437 CL       1.1673    -8.1916   -11.3581 Cl     77 CCL4  -0.0812 
 438 CL      -0.0239    -5.9450    -9.9715 Cl     77 CCL4  -0.0812 
 439 CL      -3.8918    -3.7616   -14.9619 Cl     78 CCL4  -0.0812 
 440 C       -3.9459    -5.1763   -13.8916 C.3    78 CCL4   0.3246 
 441 CL      -5.3744    -5.0703   -12.8401 Cl     78 CCL4  -0.0812 
 442 CL      -2.4789    -5.2206   -12.8895 Cl     78 CCL4  -0.0812 
 443 CL      -4.0392    -6.6491   -14.8801 Cl     78 CCL4  -0.0812 
 444 CL      -3.2483    -0.7224   -13.2213 Cl     79 CCL4  -0.0812 
 445 C       -4.3757    -0.9842   -11.8784 C.3    79 CCL4   0.3246 
 446 CL      -4.5331     0.5191   -10.9517 Cl     79 CCL4  -0.0812 
 447 CL      -3.7577    -2.2778   -10.8276 Cl     79 CCL4  -0.0812 
 448 CL      -5.9635    -1.4469   -12.5202 Cl     79 CCL4  -0.0812 
 449 CL      -4.5990   -12.6537     7.0968 Cl     80 CCL4  -0.0812 
 450 C       -3.8739   -12.7383     8.7138 C.3    80 CCL4   0.3246 
 451 CL      -5.0411   -13.4484     9.8479 Cl     80 CCL4  -0.0812 
 452 CL      -3.4306   -11.1052     9.2540 Cl     80 CCL4  -0.0812 
 453 CL      -2.4206   -13.7517     8.6523 Cl     80 CCL4  -0.0812 
 454 CL      -5.6513    17.0309     8.8289 Cl     81 CCL4  -0.0812 
 455 C       -5.1168    18.3956     9.8340 C.3    81 CCL4   0.3246 
 456 CL      -6.2489    19.7502     9.6492 Cl     81 CCL4  -0.0812 
 457 CL      -3.4950    18.9120     9.3284 Cl     81 CCL4  -0.0812 
 458 CL      -5.0708    17.8959    11.5365 Cl     81 CCL4  -0.0812 
 459 CL     -14.1527    -9.5289    10.4384 Cl     82 CCL4  -0.0812 
 460 C      -14.3438   -10.5487    11.8784 C.3    82 CCL4   0.3246 
 461 CL     -14.1066    -9.5654    13.3397 Cl     82 CCL4  -0.0812 
 462 CL     -13.1430   -11.8575    11.8304 Cl     82 CCL4  -0.0812 
 463 CL     -15.9768   -11.2470    11.8992 Cl     82 CCL4  -0.0812 
 464 CL     -12.6283    -0.6940    10.2160 Cl     83 CCL4  -0.0812 
 465 C      -12.0178     0.8579    10.8194 C.3    83 CCL4   0.3246 
 466 CL     -13.3824     1.8326    11.4047 Cl     83 CCL4  -0.0812 
 467 CL     -11.1889     1.7233     9.5090 Cl     83 CCL4  -0.0812 
 468 CL     -10.8761     0.5645    12.1476 Cl     83 CCL4  -0.0812 
 469 CL      -6.8194   -12.5333    13.0306 Cl     84 CCL4  -0.0812 
 470 C       -6.2021   -13.7330    14.1878 C.3    84 CCL4   0.3246 
 471 CL      -5.3400   -15.0137    13.3128 Cl     84 CCL4  -0.0812 
 472 CL      -7.5585   -14.4440    15.0832 Cl     84 CCL4  -0.0812 
 473 CL      -5.0907   -12.9499    15.3298 Cl     84 CCL4  -0.0812 
 474 CL      -9.0674    15.5823     9.3091 Cl     85 CCL4  -0.0812 
 475 C       -9.7919    17.0825     9.9211 C.3    85 CCL4   0.3246 
 476 CL      -8.8584    17.6692    11.3135 Cl     85 CCL4  -0.0812 
 477 CL     -11.4654    16.7654    10.4224 Cl     85 CCL4  -0.0812 
 478 CL      -9.7796    18.3137     8.6410 Cl     85 CCL4  -0.0812 
 479 CL       4.4988    -3.5192     9.2045 Cl     86 CCL4  -0.0812 
 480 C        3.7826    -2.0470     8.5153 C.3    86 CCL4   0.3246 
 481 CL       3.8615    -0.7262     9.6960 Cl     86 CCL4  -0.0812 
 482 CL       2.0907    -2.3651     8.0986 Cl     86 CCL4  -0.0812 
 483 CL       4.6697    -1.5700     7.0553 Cl     86 CCL4  -0.0812 
 484 CL      -3.7718     1.5093     7.4326 Cl     87 CCL4  -0.0812 
 485 C       -5.4672     1.2132     7.0167 C.3    87 CCL4   0.3246 
 486 CL      -5.5734    -0.1886     5.9383 Cl     87 CCL4  -0.0812 
 487 CL      -6.1334     2.6340     6.1898 Cl     87 CCL4  -0.0812 
 488 CL      -6.3810     0.8960     8.5049 Cl     87 CCL4  -0.0812 
 489 CL     -11.3885    -0.9194     6.8603 Cl     88 CCL4  -0.0812 
 490 C      -10.1463    -0.2913     5.7691 C.3    88 CCL4   0.3246 
 491 CL      -9.3446     1.0943     6.5289 Cl     88 CCL4  -0.0812 
 492 CL     -10.9192     0.2177     4.2597 Cl     88 CCL4  -0.0812 
 493 CL      -8.9468    -1.5543     5.4295 Cl     88 CCL4  -0.0812 
 494 CL      -0.7339   -12.7881     1.9603 Cl     89 CCL4  -0.0812 
 495 C       -1.2111   -14.3237     2.7112 C.3    89 CCL4   0.3246 
 496 CL      -2.1193   -15.2987     1.5432 Cl     89 CCL4  -0.0812 
 497 CL      -2.2331   -13.9991     4.1283 Cl     89 CCL4  -0.0812 
 498 CL       0.2421   -15.2154     3.2020 Cl     89 CCL4  -0.0812 
 499 CL      -4.9638   -16.2093     5.7856 Cl     90 CCL4  -0.0812 
 500 C       -3.9708   -17.2398     6.8350 C.3    90 CCL4   0.3246 
 501 CL      -4.4587   -17.0140     8.5258 Cl     90 CCL4  -0.0812 
 502 CL      -2.2661   -16.7900     6.6548 Cl     90 CCL4  -0.0812 
 503 CL      -4.1885   -18.9418     6.3770 Cl     90 CCL4  -0.0812 
 504 CL      -7.1801   -18.7004     4.3687 Cl     91 CCL4  -0.0812 
 505 C       -8.0588   -19.4722     5.7019 C.3    91 CCL4   0.3246 
 506 CL      -9.7560   -19.7140     5.2354 Cl     91 CCL4  -0.0812 
 507 CL      -7.9826   -18.4237     7.1338 Cl     91 CCL4  -0.0812 
 508 CL      -7.3129   -21.0438     6.0645 Cl     91 CCL4  -0.0812 
 509 CL      -7.6983    -8.1116     7.4189 Cl     92 CCL4  -0.0812 
 510 C       -8.0287    -9.8093     7.8126 C.3    92 CCL4   0.3246 
 511 CL      -9.7241    -9.9824     8.3106 Cl     92 CCL4  -0.0812 
 512 CL      -6.9669   -10.3251     9.1374 Cl     92 CCL4  -0.0812 
 513 CL      -7.7221   -10.8173     6.3856 Cl     92 CCL4  -0.0812 
 514 CL      33.3526   -13.2974     7.0415 Cl     93 CCL4  -0.0812 
 515 C       34.2878   -14.2273     8.2299 C.3    93 CCL4   0.3246 
 516 CL      33.4589   -15.7653     8.5439 Cl     93 CCL4  -0.0812 
 517 CL      34.4234   -13.3047     9.7439 Cl     93 CCL4  -0.0812 
 518 CL      35.9104   -14.5481     7.5852 Cl     93 CCL4  -0.0812 
 519 CL      -7.5821   -18.0793    13.0500 Cl     94 CCL4  -0.0812 
 520 C       -8.4452   -17.3069    11.7034 C.3    94 CCL4   0.3246 
 521 CL      -7.2707   -16.5621    10.6020 Cl     94 CCL4  -0.0812 
 522 CL      -9.5338   -16.0528    12.3355 Cl     94 CCL4  -0.0812 
 523 CL      -9.3895   -18.5307    10.8263 Cl     94 CCL4  -0.0812 
 524 CL       7.9200   -10.5377    14.0487 Cl     95 CCL4  -0.0812 
 525 C        7.4572   -12.1806    13.5532 C.3    95 CCL4   0.3246 
 526 CL       6.7678   -13.0503    14.9393 Cl     95 CCL4  -0.0812 
 527 CL       8.8839   -13.0500    12.9567 Cl     95 CCL4  -0.0812 
 528 CL       6.2519   -12.0885    12.2574 Cl     95 CCL4  -0.0812 
 529 CL       8.2388    20.6573    13.6578 Cl     96 CCL4  -0.0812 
 530 C        8.1427    21.6956    12.2209 C.3    96 CCL4   0.3246 
 531 CL       9.4849    21.3215    11.1253 Cl     96 CCL4  -0.0812 
 532 CL       8.2411    23.3979    12.7144 Cl     96 CCL4  -0.0812 
 533 CL       6.6074    21.4010    11.3809 Cl     96 CCL4  -0.0812 
 534 CL      30.9472     2.9772     2.7331 Cl     97 CCL4  -0.0812 
 535 C       30.0055     1.6594     2.0095 C.3    97 CCL4   0.3246 
 536 CL      28.8438     2.3366     0.8522 Cl     97 CCL4  -0.0812 
 537 CL      29.1324     0.7863     3.2868 Cl     97 CCL4  -0.0812 
 538 CL      31.0967     0.5433     1.1635 Cl     97 CCL4  -0.0812 
 539 CL       5.4175   -17.8986     7.8182 Cl     98 CCL4  -0.0812 
 540 C        6.7888   -17.0218     7.1046 C.3    98 CCL4   0.3246 
 541 CL       8.2009   -17.1626     8.1711 Cl     98 CCL4  -0.0812 
 542 CL       6.3658   -15.3091     6.9109 Cl     98 CCL4  -0.0812 
 543 CL       7.1777   -17.7158     5.5166 Cl     98 CCL4  -0.0812 
 544 CL      -6.6729    25.7809    20.6374 Cl     99 CCL4  -0.0812 
 545 C       -6.8566    24.5625    19.3612 C.3    99 CCL4   0.3246 
 546 CL      -8.4279    24.7804    18.5602 Cl     99 CCL4  -0.0812 
 547 CL      -6.7825    22.9389    20.0776 Cl     99 CCL4  -0.0812 
 548 CL      -5.5445    24.7471    18.1766 Cl     99 CCL4  -0.0812 
 549 CL      10.4814    19.1730    18.9404 Cl    100 CCL4  -0.0812 
 550 C       10.6016    19.0716    17.1715 C.3   100 CCL4   0.3246 
 551 CL      12.0257    18.1076    16.7300 Cl    100 CCL4  -0.0812 
 552 CL      10.7577    20.7018    16.4880 Cl    100 CCL4  -0.0812 
 553 CL       9.1386    18.3007    16.5287 Cl    100 CCL4  -0.0812 
 554 CL      -3.1781   -12.5210    20.1652 Cl    101 CCL4  -0.0812 
 555 C       -1.7027   -12.5469    19.1768 C.3   101 CCL4   0.3246 
 556 CL      -2.0971   -13.1368    17.5502 Cl    101 CCL4  -0.0812 
 557 CL      -0.5034   -13.6213    19.9264 Cl    101 CCL4  -0.0812 
 558 CL      -1.0319   -10.9072    19.0591 Cl    101 CCL4  -0.0812 
 559 CL      -5.0825    -9.8320    17.7796 Cl    102 CCL4  -0.0812 
 560 C       -6.8035   -10.1819    17.5133 C.3   102 CCL4   0.3246 
 561 CL      -7.7995    -9.1002    18.5107 Cl    102 CCL4  -0.0812 
 562 CL      -7.1265   -11.8641    17.9648 Cl    102 CCL4  -0.0812 
 563 CL      -7.2076    -9.9444    15.8009 Cl    102 CCL4  -0.0812 
 564 CL       0.2892    21.4353    18.2294 Cl    103 CCL4  -0.0812 
 565 C       -1.0193    22.0944    19.2342 C.3   103 CCL4   0.3246 
 566 CL      -1.8871    23.3506    18.3268 Cl    103 CCL4  -0.0812 
 567 CL      -0.3287    22.7890    20.7161 Cl    103 CCL4  -0.0812 
 568 CL      -2.1522    20.7959    19.6635 Cl    103 CCL4  -0.0812 
 569 CL      33.3454   -12.1883    14.1296 Cl    104 CCL4  -0.0812 
 570 C       32.4389   -12.8585    15.5033 C.3   104 CCL4   0.3246 
 571 CL      30.7571   -12.2930    15.4421 Cl    104 CCL4  -0.0812 
 572 CL      33.1825   -12.3218    17.0223 Cl    104 CCL4  -0.0812 
 573 CL      32.4659   -14.6328    15.4272 Cl    104 CCL4  -0.0812 
 574 CL       7.6830    -0.8323    17.3674 Cl    105 CCL4  -0.0812 
 575 C        6.9035     0.6506    16.7759 C.3   105 CCL4   0.3246 
 576 CL       5.6624     1.1844    17.9311 Cl    105 CCL4  -0.0812 
 577 CL       6.1378     0.3246    15.2103 Cl    105 CCL4  -0.0812 
 578 CL       8.1271     1.9247    16.5853 Cl    105 CCL4  -0.0812 
 579 CL      -9.3584    -7.1109    10.4147 Cl    106 CCL4  -0.0812 
 580 C       -9.3890    -7.9024    12.0020 C.3   106 CCL4   0.3246 
 581 CL     -10.7501    -9.0375    12.0663 Cl    106 CCL4  -0.0812 
 582 CL      -9.5749    -6.6697    13.2633 Cl    106 CCL4  -0.0812 
 583 CL      -7.8748    -8.7903    12.2628 Cl    106 CCL4  -0.0812 
 584 CL      -8.5485    -2.5262    17.0882 Cl    107 CCL4  -0.0812 
 585 C       -9.4172    -2.8630    15.5760 C.3   107 CCL4   0.3246 
 586 CL     -10.4014    -4.3244    15.7799 Cl    107 CCL4  -0.0812 
 587 CL      -8.2493    -3.1058    14.2606 Cl    107 CCL4  -0.0812 
 588 CL     -10.4765    -1.4956    15.1777 Cl    107 CCL4  -0.0812 
 589 CL     -11.4822    -3.7582    11.9318 Cl    108 CCL4  -0.0812 
 590 C      -13.0858    -4.3990    12.3466 C.3   108 CCL4   0.3246 
 591 CL     -13.0514    -6.1728    12.2892 Cl    108 CCL4  -0.0812 
 592 CL     -14.2808    -3.8022    11.1826 Cl    108 CCL4  -0.0812 
 593 CL     -13.5365    -3.8601    13.9773 Cl    108 CCL4  -0.0812 
 594 CL       3.2354    -6.3527     5.4281 Cl    109 CCL4  -0.0812 
 595 C        3.9638    -4.9307     4.6545 C.3   109 CCL4   0.3246 
 596 CL       4.3338    -5.2909     2.9588 Cl    109 CCL4  -0.0812 
 597 CL       5.4654    -4.5134     5.5014 Cl    109 CCL4  -0.0812 
 598 CL       2.8258    -3.5684     4.7252 Cl    109 CCL4  -0.0812 
 599 CL      -6.9747    -2.8548     8.2278 Cl    110 CCL4  -0.0812 
 600 C       -8.4687    -3.0132     9.1708 C.3   110 CCL4   0.3246 
 601 CL      -8.1084    -3.8214    10.7061 Cl    110 CCL4  -0.0812 
 602 CL      -9.6556    -3.9714     8.2582 Cl    110 CCL4  -0.0812 
 603 CL      -9.1291    -1.4003     9.5002 Cl    110 CCL4  -0.0812 
 604 CL      -5.2574    -5.1300     2.4639 Cl    111 CCL4  -0.0812 
 605 C       -6.5016    -4.0737     3.1626 C.3   111 CCL4   0.3246 
 606 CL      -8.0254    -4.9703     3.3262 Cl    111 CCL4  -0.0812 
 607 CL      -6.7459    -2.6640     2.1087 Cl    111 CCL4  -0.0812 
 608 CL      -5.9717    -3.5307     4.7636 Cl    111 CCL4  -0.0812 
 609 CL     -10.6218   -10.6657     4.2716 Cl    112 CCL4  -0.0812 
 610 C      -10.9402    -9.5094     2.9616 C.3   112 CCL4   0.3246 
 611 CL     -12.6175    -8.9338     3.0704 Cl    112 CCL4  -0.0812 
 612 CL     -10.6842   -10.3061     1.3946 Cl    112 CCL4  -0.0812 
 613 CL      -9.8351    -8.1302     3.1109 Cl    112 CCL4  -0.0812 
 614 CL     -11.5424    -3.8381     4.6819 Cl    113 CCL4  -0.0812 
 615 C      -11.8329    -3.6336     2.9433 C.3   113 CCL4   0.3246 
 616 CL     -10.5315    -2.6572     2.2346 Cl    113 CCL4  -0.0812 
 617 CL     -13.3879    -2.8131     2.6947 Cl    113 CCL4  -0.0812 
 618 CL     -11.8719    -5.2276     2.1623 Cl    113 CCL4  -0.0812 
 619 CL      28.5635    -2.1153     5.7309 Cl    114 CCL4  -0.0812 
 620 C       28.5133    -2.8107     7.3626 C.3   114 CCL4   0.3246 
 621 CL      27.3912    -4.1837     7.3893 Cl    114 CCL4  -0.0812 
 622 CL      27.9660    -1.5716     8.5120 Cl    114 CCL4  -0.0812 
 623 CL      30.1315    -3.3798     7.8143 Cl    114 CCL4  -0.0812 
 624 CL     -12.9234    -9.0847     6.8579 Cl    115 CCL4  -0.0812 
 625 C      -12.5604    -7.3466     6.9089 C.3   115 CCL4   0.3246 
 626 CL     -13.6882    -6.4801     5.8439 Cl    115 CCL4  -0.0812 
 627 CL     -10.8988    -7.0703     6.3511 Cl    115 CCL4  -0.0812 
 628 CL     -12.7272    -6.7530     8.5757 Cl    115 CCL4  -0.0812 
 629 CL       6.0433    -7.8482    16.4239 Cl    116 CCL4  -0.0812 
 630 C        4.7836    -7.0702    17.4085 C.3   116 CCL4   0.3246 
 631 CL       5.4730    -6.5608    18.9629 Cl    116 CCL4  -0.0812 
 632 CL       3.4495    -8.2110    17.6889 Cl    116 CCL4  -0.0812 
 633 CL       4.1643    -5.6455    16.5560 Cl    116 CCL4  -0.0812 
 634 CL       6.3160    -3.4467    14.7771 Cl    117 CCL4  -0.0812 
 635 C        5.6425    -3.5534    13.1412 C.3   117 CCL4   0.3246 
 636 CL       4.3716    -4.7870    13.0975 Cl    117 CCL4  -0.0812 
 637 CL       6.9193    -3.9847    11.9895 Cl    117 CCL4  -0.0812 
 638 CL       4.9576    -1.9851    12.6973 Cl    117 CCL4  -0.0812 
 639 CL      -4.6061    -8.7752     1.8637 Cl    118 CCL4  -0.0812 
 640 C       -5.6887    -9.5280     3.0483 C.3   118 CCL4   0.3246 
 641 CL      -4.7717   -10.6951     4.0212 Cl    118 CCL4  -0.0812 
 642 CL      -7.0037   -10.3690     2.2013 Cl    118 CCL4  -0.0812 
 643 CL      -6.3661    -8.2699     4.1012 Cl    118 CCL4  -0.0812 
 644 CL      -5.6159    -5.8991    18.5830 Cl    119 CCL4  -0.0812 
 645 C       -5.6735    -5.7387    16.8143 C.3   119 CCL4   0.3246 
 646 CL      -7.2861    -6.2027    16.2319 Cl    119 CCL4  -0.0812 
 647 CL      -4.4545    -6.7972    16.0758 Cl    119 CCL4  -0.0812 
 648 CL      -5.3376    -4.0553    16.3623 Cl    119 CCL4  -0.0812 
 649 CL      -1.9146    -0.9943    20.0359 Cl    120 CCL4  -0.0812 
 650 C       -3.2475    -2.1344    19.7559 C.3   120 CCL4   0.3246 
 651 CL      -2.6486    -3.5444    18.8607 Cl    120 CCL4  -0.0812 
 652 CL      -4.5240    -1.3349    18.8146 Cl    120 CCL4  -0.0812 
 653 CL      -3.9042    -2.6687    21.3157 Cl    120 CCL4  -0.0812 
 654 CL       0.8706    -2.4673    17.7222 Cl    121 CCL4  -0.0812 
 655 C        2.4992    -2.2048    18.3755 C.3   121 CCL4   0.3246 
 656 CL       2.4830    -0.7892    19.4478 Cl    121 CCL4  -0.0812 
 657 CL       3.6371    -1.9269    17.0388 Cl    121 CCL4  -0.0812 
 658 CL       2.9998    -3.6371    19.2965 Cl    121 CCL4  -0.0812 
 659 CL      30.7787    -7.0462    15.8215 Cl    122 CCL4  -0.0812 
 660 C       31.7962    -8.1178    16.8057 C.3   122 CCL4   0.3246 
 661 CL      30.7739    -9.3326    17.6005 Cl    122 CCL4  -0.0812 
 662 CL      32.6530    -7.1636    18.0352 Cl    122 CCL4  -0.0812 
 663 CL      32.9780    -8.9330    15.7644 Cl    122 CCL4  -0.0812 
 664 CL       0.7182    -8.5073     9.6083 Cl    123 CCL4  -0.0812 
 665 C        1.2142    -6.8325     9.9289 C.3   123 CCL4   0.3246 
 666 CL       1.1614    -5.8911     8.4245 Cl    123 CCL4  -0.0812 
 667 CL       2.8686    -6.8123    10.5606 Cl    123 CCL4  -0.0812 
 668 CL       0.1190    -6.1189    11.1285 Cl    123 CCL4  -0.0812 
 669 CL      -0.2893   -13.5666    11.7784 Cl    124 CCL4  -0.0812 
 670 C       -0.9071   -15.0253    12.5858 C.3   124 CCL4   0.3246 
 671 CL      -1.5174   -14.6000    14.1998 Cl    124 CCL4  -0.0812 
 672 CL       0.4016   -16.2160    12.7468 Cl    124 CCL4  -0.0812 
 673 CL      -2.2235   -15.7265    11.6211 Cl    124 CCL4  -0.0812 
 674 CL       2.0891   -11.5683     8.2410 Cl    125 CCL4  -0.0812 
 675 C        3.7268   -11.1263     7.7152 C.3   125 CCL4   0.3246 
 676 CL       4.9110   -11.7929     8.8541 Cl    125 CCL4  -0.0812 
 677 CL       3.8679    -9.3568     7.6786 Cl    125 CCL4  -0.0812 
 678 CL       4.0417   -11.7869     6.0953 Cl    125 CCL4  -0.0812 
 679 CL       3.4790   -16.8489    10.8693 Cl    126 CCL4  -0.0812 
 680 C        4.2905   -15.3481    11.3624 C.3   126 CCL4   0.3246 
 681 CL       4.7246   -15.4506    13.0772 Cl    126 CCL4  -0.0812 
 682 CL       3.1991   -13.9696    11.1156 Cl    126 CCL4  -0.0812 
 683 CL       5.7629   -15.1250    10.3964 Cl    126 CCL4  -0.0812 
 684 CL       2.9726    -8.0186    13.9191 Cl    127 CCL4  -0.0812 
 685 C        2.9003    -9.7608    13.5970 C.3   127 CCL4   0.3246 
 686 CL       1.2477   -10.3393    13.8801 Cl    127 CCL4  -0.0812 
 687 CL       4.0230   -10.6009    14.6862 Cl    127 CCL4  -0.0812 
 688 CL       3.3508   -10.0797    11.9082 Cl    127 CCL4  -0.0812 
 689 CL       3.7893    21.0525     4.7187 Cl    128 CCL4  -0.0812 
 690 C        3.0767    20.3103     3.2733 C.3   128 CCL4   0.3246 
 691 CL       1.9294    19.0423     3.7623 Cl    128 CCL4  -0.0812 
 692 CL       4.3723    19.5987     2.2877 Cl    128 CCL4  -0.0812 
 693 CL       2.2254    21.5507     2.3277 Cl    128 CCL4  -0.0812 
 694 CL       0.4634   -14.2132     6.5794 Cl    129 CCL4  -0.0812 
 695 C        1.3274   -15.5312     7.3928 C.3   129 CCL4   0.3246 
 696 CL       1.3241   -16.9691     6.3543 Cl    129 CCL4  -0.0812 
 697 CL       0.5299   -15.9085     8.9336 Cl    129 CCL4  -0.0812 
 698 CL       2.9998   -15.0326     7.7007 Cl    129 CCL4  -0.0812 
 699 CL      -1.0268    -2.7176    12.7712 Cl    130 CCL4  -0.0812 
 700 C        0.5211    -1.8878    12.5197 C.3   130 CCL4   0.3246 
 701 CL       1.2173    -1.4397    14.0918 Cl    130 CCL4  -0.0812 
 702 CL       0.2549    -0.4279    11.5490 Cl    130 CCL4  -0.0812 
 703 CL       1.6365    -2.9666    11.6604 Cl    130 CCL4  -0.0812 
 704 CL       0.9499   -11.1137     4.5970 Cl    131 CCL4  -0.0812 
 705 C       -0.3856   -10.0900     5.1574 C.3   131 CCL4   0.3246 
 706 CL      -1.3744   -11.0026     6.3116 Cl    131 CCL4  -0.0812 
 707 CL      -1.3858    -9.6072     3.7711 Cl    131 CCL4  -0.0812 
 708 CL       0.2671    -8.6440     5.9553 Cl    131 CCL4  -0.0812 
 709 CL      -3.4247    -2.5301     7.4184 Cl    132 CCL4  -0.0812 
 710 C       -1.6665    -2.5018     7.6408 C.3   132 CCL4   0.3246 
 711 CL      -1.2602    -3.2727     9.1871 Cl    132 CCL4  -0.0812 
 712 CL      -1.0965    -0.8194     7.6535 Cl    132 CCL4  -0.0812 
 713 CL      -0.8938    -3.3861     6.3063 Cl    132 CCL4  -0.0812 
 714 CL       3.8642   -14.1714    16.8512 Cl    133 CCL4  -0.0812 
 715 C        2.1949   -13.7945    16.3842 C.3   133 CCL4   0.3246 
 716 CL       1.1173   -15.0896    16.9420 Cl    133 CCL4  -0.0812 
 717 CL       2.0933   -13.6677    14.6194 Cl    133 CCL4  -0.0812 
 718 CL       1.7060   -12.2526    17.1168 Cl    133 CCL4  -0.0812 
 719 CL      -2.2027   -10.5370    14.9571 Cl    134 CCL4  -0.0812 
 720 C       -2.9484   -10.3015    13.3620 C.3   134 CCL4   0.3246 
 721 CL      -3.2523   -11.8797    12.6152 Cl    134 CCL4  -0.0812 
 722 CL      -1.8623    -9.3627    12.3157 Cl    134 CCL4  -0.0812 
 723 CL      -4.4845    -9.4360    13.5543 Cl    134 CCL4  -0.0812 
 724 CL       3.8214    22.2284    16.9804 Cl    135 CCL4  -0.0812 
 725 C        5.1910    21.6819    15.9907 C.3   135 CCL4   0.3246 
 726 CL       4.5922    21.1296    14.4122 Cl    135 CCL4  -0.0812 
 727 CL       6.0211    20.3439    16.8121 Cl    135 CCL4  -0.0812 
 728 CL       6.3299    23.0233    15.7600 Cl    135 CCL4  -0.0812 
 729 CL      -3.1045     1.5049    16.8651 Cl    136 CCL4  -0.0812 
 730 C       -1.6522     0.6942    16.2408 C.3   136 CCL4   0.3246 
 731 CL      -0.3252     0.9055    17.4010 Cl    136 CCL4  -0.0812 
 732 CL      -1.1810     1.3960    14.6769 Cl    136 CCL4  -0.0812 
 733 CL      -1.9967    -1.0347    16.0281 Cl    136 CCL4  -0.0812 
 734 CL      -4.0320    -8.5828     6.8217 Cl    137 CCL4  -0.0812 
 735 C       -3.5388    -6.8794     6.7937 C.3   137 CCL4   0.3246 
 736 CL      -2.2755    -6.6159     8.0117 Cl    137 CCL4  -0.0812 
 737 CL      -4.9380    -5.8567     7.1696 Cl    137 CCL4  -0.0812 
 738 CL      -2.9141    -6.4651     5.1820 Cl    137 CCL4  -0.0812 
 739 CL       1.1356    -4.9916    14.7888 Cl    138 CCL4  -0.0812 
 740 C       -0.1489    -5.7427    15.7543 C.3   138 CCL4   0.3246 
 741 CL       0.4169    -5.9769    17.4227 Cl    138 CCL4  -0.0812 
 742 CL      -0.5742    -7.3142    15.0511 Cl    138 CCL4  -0.0812 
 743 CL      -1.5759    -4.6892    15.7468 Cl    138 CCL4  -0.0812 
 744 CL      -4.5320    -4.4939    10.5340 Cl    139 CCL4  -0.0812 
 745 C       -4.5905    -5.8933    11.6232 C.3   139 CCL4   0.3246 
 746 CL      -5.9592    -5.7275    12.7412 Cl    139 CCL4  -0.0812 
 747 CL      -3.0872    -5.9707    12.5612 Cl    139 CCL4  -0.0812 
 748 CL      -4.7803    -7.3754    10.6602 Cl    139 CCL4  -0.0812 
 749 CL      -3.7782    -1.0060    10.8263 Cl    140 CCL4  -0.0812 
 750 C       -4.7609    -0.8225    12.2945 C.3   140 CCL4   0.3246 
 751 CL      -4.2809     0.6595    13.1435 Cl    140 CCL4  -0.0812 
 752 CL      -4.5150    -2.2186    13.3633 Cl    140 CCL4  -0.0812 
 753 CL      -6.4746    -0.7219    11.8472 Cl    140 CCL4  -0.0812 
 754 CL      -2.3577    11.8115   -18.1027 Cl    141 CCL4  -0.0812 
 755 C       -2.4196    12.5321   -16.4780 C.3   141 CCL4   0.3246 
 756 CL      -2.3935    11.2484   -15.2540 Cl    141 CCL4  -0.0812 
 757 CL      -3.9137    13.4780   -16.3059 Cl    141 CCL4  -0.0812 
 758 CL      -1.0131    13.5919   -16.2426 Cl    141 CCL4  -0.0812 
 759 CL      -7.1357     2.7788   -12.3568 Cl    142 CCL4  -0.0812 
 760 C       -6.9632     4.4483   -12.9327 C.3   142 CCL4   0.3246 
 761 CL      -7.7641     4.5993   -14.5052 Cl    142 CCL4  -0.0812 
 762 CL      -5.2420     4.8451   -13.1069 Cl    142 CCL4  -0.0812 
 763 CL      -7.7136     5.5659   -11.7736 Cl    142 CCL4  -0.0812 
 764 CL     -10.9600    11.8896   -10.3761 Cl    143 CCL4  -0.0812 
 765 C      -10.5862    10.6244   -11.5631 C.3   143 CCL4   0.3246 
 766 CL      -9.8905     9.2141   -10.7345 Cl    143 CCL4  -0.0812 
 767 CL      -9.4207    11.2602   -12.7413 Cl    143 CCL4  -0.0812 
 768 CL     -12.0760    10.1455   -12.4032 Cl    143 CCL4  -0.0812 
 769 CL      -9.3170     1.8988     1.1385 Cl    144 CCL4  -0.0812 
 770 C       -8.2608     2.4241     2.4629 C.3   144 CCL4   0.3246 
 771 CL      -7.4371     1.0100     3.1494 Cl    144 CCL4  -0.0812 
 772 CL      -9.2196     3.2208     3.7212 Cl    144 CCL4  -0.0812 
 773 CL      -7.0694     3.5766     1.8401 Cl    144 CCL4  -0.0812 
 774 CL      -5.2134     6.4191     0.9096 Cl    145 CCL4  -0.0812 
 775 C       -6.6292     7.3764     0.4319 C.3   145 CCL4   0.3246 
 776 CL      -7.2156     6.8135    -1.1448 Cl    145 CCL4  -0.0812 
 777 CL      -6.1783     9.0890     0.3139 Cl    145 CCL4  -0.0812 
 778 CL      -7.9095     7.1820     1.6454 Cl    145 CCL4  -0.0812 
 779 CL      -5.8609    11.2835   -13.5890 Cl    146 CCL4  -0.0812 
 780 C       -5.9901     9.5526   -13.2092 C.3   146 CCL4   0.3246 
 781 CL      -4.4451     8.7548   -13.5456 Cl    146 CCL4  -0.0812 
 782 CL      -7.2527     8.8075   -14.2079 Cl    146 CCL4  -0.0812 
 783 CL      -6.3986     9.3552   -11.4949 Cl    146 CCL4  -0.0812 
 784 CL      33.0435     3.0981   -16.0843 Cl    147 CCL4  -0.0812 
 785 C       31.7396     3.1176   -17.2887 C.3   147 CCL4   0.3246 
 786 CL      31.6371     1.5324   -18.0821 Cl    147 CCL4  -0.0812 
 787 CL      32.0798     4.3648   -18.5071 Cl    147 CCL4  -0.0812 
 788 CL      30.1965     3.4731   -16.4839 Cl    147 CCL4  -0.0812 
 789 CL      -8.6446     2.9295    -8.4716 Cl    148 CCL4  -0.0812 
 790 C       -9.1211     1.2329    -8.6832 C.3   148 CCL4   0.3246 
 791 CL      -8.0490     0.4554    -9.8651 Cl    148 CCL4  -0.0812 
 792 CL     -10.7965     1.1564    -9.2644 Cl    148 CCL4  -0.0812 
 793 CL      -8.9946     0.3885    -7.1274 Cl    148 CCL4  -0.0812 
 794 CL     -12.7416     4.5546   -13.0188 Cl    149 CCL4  -0.0812 
 795 C      -12.6339     5.0228   -11.3084 C.3   149 CCL4   0.3246 
 796 CL     -11.0310     4.5959   -10.6771 Cl    149 CCL4  -0.0812 
 797 CL     -13.8845     4.1686   -10.3796 Cl    149 CCL4  -0.0812 
 798 CL     -12.8793     6.7749   -11.1576 Cl    149 CCL4  -0.0812 
 799 CL       7.3976     0.7580    23.0804 Cl    150 CCL4  -0.0812 
 800 C        7.9452     0.1206    21.5161 C.3   150 CCL4   0.3246 
 801 CL       6.6560    -0.8689    20.7996 Cl    150 CCL4  -0.0812 
 802 CL       9.3947    -0.8771    21.7604 Cl    150 CCL4  -0.0812 
 803 CL       8.3329     1.4692    20.4269 Cl    150 CCL4  -0.0812 
 804 CL      -8.7526    10.6843     2.2195 Cl    151 CCL4  -0.0812 
 805 C       -9.4622    11.0927     0.6435 C.3   151 CCL4   0.3246 
 806 CL      -8.2882    12.0195    -0.3149 Cl    151 CCL4  -0.0812 
 807 CL     -10.9301    12.0625     0.8888 Cl    151 CCL4  -0.0812 
 808 CL      -9.8810     9.6005    -0.2205 Cl    151 CCL4  -0.0812 
 809 CL      -4.0292     7.2330    21.0443 Cl    152 CCL4  -0.0812 
 810 C       -4.0813     6.3417    22.5793 C.3   152 CCL4   0.3246 
 811 CL      -5.6749     6.5407    23.3334 Cl    152 CCL4  -0.0812 
 812 CL      -2.8307     6.9666    23.6716 Cl    152 CCL4  -0.0812 
 813 CL      -3.7912     4.6204    22.2690 Cl    152 CCL4  -0.0812 
 814 CL      -6.0852    11.8832    20.9303 Cl    153 CCL4  -0.0812 
 815 C       -6.6826    10.7731    22.1787 C.3   153 CCL4   0.3246 
 816 CL      -7.6937    11.6672    23.3327 Cl    153 CCL4  -0.0812 
 817 CL      -5.3026    10.0498    23.0248 Cl    153 CCL4  -0.0812 
 818 CL      -7.6448     9.4888    21.4254 Cl    153 CCL4  -0.0812 
 819 CL      31.0371     9.7406    18.7033 Cl    154 CCL4  -0.0812 
 820 C       31.6395     9.5838    20.3678 C.3   154 CCL4   0.3246 
 821 CL      30.2823     9.7143    21.5065 Cl    154 CCL4  -0.0812 
 822 CL      32.8116    10.8785    20.6952 Cl    154 CCL4  -0.0812 
 823 CL      32.4233     8.0025    20.5665 Cl    154 CCL4  -0.0812 
 824 CL      -9.4595     6.8074   -16.6056 Cl    155 CCL4  -0.0812 
 825 C      -10.6670     7.5835   -15.5608 C.3   155 CCL4   0.3246 
 826 CL     -10.5863     9.3446   -15.7779 Cl    155 CCL4  -0.0812 
 827 CL     -10.3397     7.1740   -13.8641 Cl    155 CCL4  -0.0812 
 828 CL     -12.2892     7.0086   -15.9961 Cl    155 CCL4  -0.0812 
 829 CL       6.8211    11.9497   -10.6715 Cl    156 CCL4  -0.0812 
 830 C        7.8763    10.8456   -11.5805 C.3   156 CCL4   0.3246 
 831 CL       7.2870     9.1784   -11.3989 Cl    156 CCL4  -0.0812 
 832 CL       9.5300    10.9645   -10.9488 Cl    156 CCL4  -0.0812 
 833 CL       7.8744    11.2917   -13.3007 Cl    156 CCL4  -0.0812 
 834 CL       9.2921     4.6525   -12.4697 Cl    157 CCL4  -0.0812 
 835 C        7.6265     4.9040   -13.0311 C.3   157 CCL4   0.3246 
 836 CL       7.6174     6.1016   -14.3408 Cl    157 CCL4  -0.0812 
 837 CL       6.6352     5.4936   -11.6810 Cl    157 CCL4  -0.0812 
 838 CL       6.9619     3.3727   -13.6356 Cl    157 CCL4  -0.0812 
 839 CL       5.4246    10.6680    -6.9766 Cl    158 CCL4  -0.0812 
 840 C        5.1414     9.1544    -6.0901 C.3   158 CCL4   0.3246 
 841 CL       4.9432     7.8227    -7.2475 Cl    158 CCL4  -0.0812 
 842 CL       3.6725     9.2995    -5.1054 Cl    158 CCL4  -0.0812 
 843 CL       6.5245     8.8217    -5.0291 Cl    158 CCL4  -0.0812 
 844 CL       6.0194     4.2269    22.9032 Cl    159 CCL4  -0.0812 
 845 C        5.5843     5.2565    21.5252 C.3   159 CCL4   0.3246 
 846 CL       6.2509     6.8831    21.7725 Cl    159 CCL4  -0.0812 
 847 CL       3.8158     5.3570    21.3957 Cl    159 CCL4  -0.0812 
 848 CL       6.2510     4.5604    20.0323 Cl    159 CCL4  -0.0812 
 849 CL     -12.3227     5.1288    -4.6845 Cl    160 CCL4  -0.0812 
 850 C      -12.1562     3.4972    -5.3517 C.3   160 CCL4   0.3246 
 851 CL     -13.3847     2.4453    -4.6169 Cl    160 CCL4  -0.0812 
 852 CL     -10.5318     2.8769    -4.9938 Cl    160 CCL4  -0.0812 
 853 CL     -12.3882     3.5520    -7.1100 Cl    160 CCL4  -0.0812 
 854 CL      -5.9465     3.2925    -1.4825 Cl    161 CCL4  -0.0812 
 855 C       -4.7547     2.0496    -1.0527 C.3   161 CCL4   0.3246 
 856 CL      -3.2737     2.8348    -0.4682 Cl    161 CCL4  -0.0812 
 857 CL      -4.3877     1.0685    -2.4836 Cl    161 CCL4  -0.0812 
 858 CL      -5.4129     0.9990     0.2162 Cl    161 CCL4  -0.0812 
 859 CL      -2.5936    12.0381    -3.4753 Cl    162 CCL4  -0.0812 
 860 C       -3.8530    11.5140    -2.3446 C.3   162 CCL4   0.3246 
 861 CL      -5.3597    12.3757    -2.7055 Cl    162 CCL4  -0.0812 
 862 CL      -3.3536    11.8942    -0.6865 Cl    162 CCL4  -0.0812 
 863 CL      -4.0991     9.7619    -2.5126 Cl    162 CCL4  -0.0812 
 864 CL       7.8904     5.7122    -6.9810 Cl    163 CCL4  -0.0812 
 865 C        7.2539     4.1392    -7.5034 C.3   163 CCL4   0.3246 
 866 CL       8.1305     3.5975    -8.9500 Cl    163 CCL4  -0.0812 
 867 CL       5.5286     4.3013    -7.8857 Cl    163 CCL4  -0.0812 
 868 CL       7.4608     2.9486    -6.2004 Cl    163 CCL4  -0.0812 
 869 CL      -4.4584    10.1373    -8.6305 Cl    164 CCL4  -0.0812 
 870 C       -3.9605    10.6243    -7.0017 C.3   164 CCL4   0.3246 
 871 CL      -3.2961    12.2696    -7.0533 Cl    164 CCL4  -0.0812 
 872 CL      -2.7303     9.4990    -6.4016 Cl    164 CCL4  -0.0812 
 873 CL      -5.3645    10.5819    -5.9221 Cl    164 CCL4  -0.0812 
 874 CL      -5.8482    13.3641   -10.0226 Cl    165 CCL4  -0.0812 
 875 C       -7.1221    13.4423    -8.7884 C.3   165 CCL4   0.3246 
 876 CL      -6.4421    14.0808    -7.2772 Cl    165 CCL4  -0.0812 
 877 CL      -7.7693    11.8116    -8.5133 Cl    165 CCL4  -0.0812 
 878 CL      -8.4260    14.5135    -9.3428 Cl    165 CCL4  -0.0812 
 879 CL      -2.6074     4.9645    -9.7215 Cl    166 CCL4  -0.0812 
 880 C       -4.2238     5.1353    -9.0128 C.3   166 CCL4   0.3246 
 881 CL      -4.9823     6.6268    -9.6002 Cl    166 CCL4  -0.0812 
 882 CL      -4.0819     5.2021    -7.2479 Cl    166 CCL4  -0.0812 
 883 CL      -5.2246     3.7478    -9.4775 Cl    166 CCL4  -0.0812 
 884 CL      -6.0726     7.0116    -4.7480 Cl    167 CCL4  -0.0812 
 885 C       -7.4016     5.9508    -5.2628 C.3   167 CCL4   0.3246 
 886 CL      -7.6048     6.0741    -7.0225 Cl    167 CCL4  -0.0812 
 887 CL      -8.9076     6.4408    -4.4629 Cl    167 CCL4  -0.0812 
 888 CL      -7.0256     4.2743    -4.8197 Cl    167 CCL4  -0.0812 
 889 CL       0.0394    13.6526    -6.4017 Cl    168 CCL4  -0.0812 
 890 C        0.9084    12.6606    -5.2117 C.3   168 CCL4   0.3246 
 891 CL       0.2710    11.0059    -5.2436 Cl    168 CCL4  -0.0812 
 892 CL       0.7011    13.3554    -3.5911 Cl    168 CCL4  -0.0812 
 893 CL       2.6332    12.6194    -5.6120 Cl    168 CCL4  -0.0812 
 894 CL     -10.4886    10.7623    -3.5987 Cl    169 CCL4  -0.0812 
 895 C       -8.8863    10.5870    -4.3429 C.3   169 CCL4   0.3246 
 896 CL      -9.0222     9.6617    -5.8531 Cl    169 CCL4  -0.0812 
 897 CL      -7.8065     9.7401    -3.2181 Cl    169 CCL4  -0.0812 
 898 CL      -8.2253    12.1928    -4.6994 Cl    169 CCL4  -0.0812 
 899 CL       4.9905    14.4622    -3.6843 Cl    170 CCL4  -0.0812 
 900 C        6.2280    13.2333    -3.3476 C.3   170 CCL4   0.3246 
 901 CL       7.1180    12.8717    -4.8386 Cl    170 CCL4  -0.0812 
 902 CL       5.4566    11.7491    -2.7499 Cl    170 CCL4  -0.0812 
 903 CL       7.3522    13.8513    -2.1206 Cl    170 CCL4  -0.0812 
 904 CL      32.5961     7.0684    -7.7723 Cl    171 CCL4  -0.0812 
 905 C       31.1280     7.9654    -7.3288 C.3   171 CCL4   0.3246 
 906 CL      30.9818     9.4106    -8.3498 Cl    171 CCL4  -0.0812 
 907 CL      31.2233     8.4593    -5.6262 Cl    171 CCL4  -0.0812 
 908 CL      29.7059     6.9271    -7.5661 Cl    171 CCL4  -0.0812 
 909 CL       3.5227     3.6870   -11.0164 Cl    172 CCL4  -0.0812 
 910 C        3.8322     1.9736   -10.6793 C.3   172 CCL4   0.3246 
 911 CL       3.4999     1.6217    -8.9702 Cl    172 CCL4  -0.0812 
 912 CL       5.5294     1.6109   -11.0353 Cl    172 CCL4  -0.0812 
 913 CL       2.7821     0.9742   -11.7014 Cl    172 CCL4  -0.0812 
 914 CL      -9.5575     4.2166    -1.6193 Cl    173 CCL4  -0.0812 
 915 C      -10.9705     5.0185    -0.9065 C.3   173 CCL4   0.3246 
 916 CL     -10.7192     5.2370     0.8356 Cl    173 CCL4  -0.0812 
 917 CL     -12.4073     4.0129    -1.1725 Cl    173 CCL4  -0.0812 
 918 CL     -11.2018     6.6053    -1.6669 Cl    173 CCL4  -0.0812 
 919 CL       4.4420    14.4839    -7.8932 Cl    174 CCL4  -0.0812 
 920 C        4.0432    16.1471    -7.4170 C.3   174 CCL4   0.3246 
 921 CL       5.4721    16.8957    -6.6878 Cl    174 CCL4  -0.0812 
 922 CL       2.7114    16.1480    -6.2409 Cl    174 CCL4  -0.0812 
 923 CL       3.5608    17.0730    -8.8496 Cl    174 CCL4  -0.0812 
 924 CL      -7.3323    15.5842    -2.9389 Cl    175 CCL4  -0.0812 
 925 C       -9.0451    15.7236    -3.3904 C.3   175 CCL4   0.3246 
 926 CL      -9.6841    17.2791    -2.8232 Cl    175 CCL4  -0.0812 
 927 CL      -9.9753    14.4083    -2.6403 Cl    175 CCL4  -0.0812 
 928 CL      -9.1945    15.6299    -5.1585 Cl    175 CCL4  -0.0812 
 929 CL      -2.7014    15.4634    -2.1650 Cl    176 CCL4  -0.0812 
 930 C       -2.8772    16.2530    -3.7487 C.3   176 CCL4   0.3246 
 931 CL      -1.2752    16.4885    -4.4805 Cl    176 CCL4  -0.0812 
 932 CL      -3.6652    17.8306    -3.5435 Cl    176 CCL4  -0.0812 
 933 CL      -3.8695    15.2339    -4.8121 Cl    176 CCL4  -0.0812 
 934 CL      30.1946    11.9022    -5.4668 Cl    177 CCL4  -0.0812 
 935 C       30.9700    13.1314    -6.4868 C.3   177 CCL4   0.3246 
 936 CL      30.0694    13.2892    -8.0098 Cl    177 CCL4  -0.0812 
 937 CL      32.6407    12.6470    -6.8383 Cl    177 CCL4  -0.0812 
 938 CL      30.9724    14.6890    -5.6327 Cl    177 CCL4  -0.0812 
 939 CL      -0.7433    18.5097    -1.4399 Cl    178 CCL4  -0.0812 
 940 C        0.4065    17.5523    -0.4925 C.3   178 CCL4   0.3246 
 941 CL       1.6477    18.6261     0.1731 Cl    178 CCL4  -0.0812 
 942 CL       1.1727    16.3398    -1.5384 Cl    178 CCL4  -0.0812 
 943 CL      -0.4487    16.7460     0.8359 Cl    178 CCL4  -0.0812 
 944 CL       1.1001    16.0196   -11.1991 Cl    179 CCL4  -0.0812 
 945 C        0.1291    17.4251   -10.7150 C.3   179 CCL4   0.3246 
 946 CL       1.0512    18.9161   -11.0075 Cl    179 CCL4  -0.0812 
 947 CL      -0.2723    17.3017    -8.9869 Cl    179 CCL4  -0.0812 
 948 CL      -1.3654    17.4569   -11.6735 Cl    179 CCL4  -0.0812 
 949 CL      -0.7457     8.8271   -13.2737 Cl    180 CCL4  -0.0812 
 950 C       -1.1532     7.5824   -12.0791 C.3   180 CCL4   0.3246 
 951 CL      -2.1496     8.3011   -10.8009 Cl    180 CCL4  -0.0812 
 952 CL       0.3243     6.9201   -11.3580 Cl    180 CCL4  -0.0812 
 953 CL      -2.0428     6.2786   -12.8850 Cl    180 CCL4  -0.0812 
 954 CL       4.5751     9.7033     0.6584 Cl    181 CCL4  -0.0812 
 955 C        4.7961     8.5549     1.9940 C.3   181 CCL4   0.3246 
 956 CL       3.4115     8.6454     3.1023 Cl    181 CCL4  -0.0812 
 957 CL       6.2842     8.9520     2.8752 Cl    181 CCL4  -0.0812 
 958 CL       4.9197     6.9119     1.3397 Cl    181 CCL4  -0.0812 
 959 CL      -0.0844     9.0783    22.8767 Cl    182 CCL4  -0.0812 
 960 C        1.0655     9.5732    21.6190 C.3   182 CCL4   0.3246 
 961 CL       2.6255     8.7718    21.8934 Cl    182 CCL4  -0.0812 
 962 CL       1.2892    11.3348    21.6740 Cl    182 CCL4  -0.0812 
 963 CL       0.4314     9.1054    20.0289 Cl    182 CCL4  -0.0812 
 964 CL       3.9303     5.0895   -14.3546 Cl    183 CCL4  -0.0812 
 965 C        3.4555     6.7924   -14.2199 C.3   183 CCL4   0.3246 
 966 CL       3.5545     7.3042   -12.5224 Cl    183 CCL4  -0.0812 
 967 CL       1.7935     6.9751   -14.8139 Cl    183 CCL4  -0.0812 
 968 CL       4.5456     7.7964   -15.1960 Cl    183 CCL4  -0.0812 
 969 CL       2.8328    13.3493   -13.4004 Cl    184 CCL4  -0.0812 
 970 C        3.2845    11.8383   -14.2184 C.3   184 CCL4   0.3246 
 971 CL       1.8182    10.9406   -14.6587 Cl    184 CCL4  -0.0812 
 972 CL       4.2794    10.8526   -13.1283 Cl    184 CCL4  -0.0812 
 973 CL       4.2109    12.2073   -15.6880 Cl    184 CCL4  -0.0812 
 974 CL      -1.7739     4.6958   -20.9437 Cl    185 CCL4  -0.0812 
 975 C       -0.4936     4.1572   -19.8349 C.3   185 CCL4   0.3246 
 976 CL      -0.9845     2.6346   -19.0597 Cl    185 CCL4  -0.0812 
 977 CL      -0.2241     5.4009   -18.5933 Cl    185 CCL4  -0.0812 
 978 CL       1.0105     3.8978   -20.7447 Cl    185 CCL4  -0.0812 
 979 CL      -1.3465     3.4900   -15.3051 Cl    186 CCL4  -0.0812 
 980 C       -0.7362     2.7566   -13.8076 C.3   186 CCL4   0.3246 
 981 CL       0.5928     3.7463   -13.1714 Cl    186 CCL4  -0.0812 
 982 CL      -0.1382     1.1184   -14.1403 Cl    186 CCL4  -0.0812 
 983 CL      -2.0503     2.6740   -12.6153 Cl    186 CCL4  -0.0812 
 984 CL       1.9604     0.0481   -16.8668 Cl    187 CCL4  -0.0812 
 985 C        2.9786     1.4991   -16.7804 C.3   187 CCL4   0.3246 
 986 CL       3.9709     1.4472   -15.3063 Cl    187 CCL4  -0.0812 
 987 CL       1.9455     2.9419   -16.7407 Cl    187 CCL4  -0.0812 
 988 CL       4.0274     1.5629   -18.2125 Cl    187 CCL4  -0.0812 
 989 CL       2.2161    10.0958    -8.3179 Cl    188 CCL4  -0.0812 
 990 C        1.2324    11.0278    -9.4593 C.3   188 CCL4   0.3246 
 991 CL      -0.4721    10.9331    -8.9787 Cl    188 CCL4  -0.0812 
 992 CL       1.4306    10.3510   -11.0827 Cl    188 CCL4  -0.0812 
 993 CL       1.7567    12.7236    -9.4636 Cl    188 CCL4  -0.0812 
 994 CL      -2.0173    14.0343   -10.1096 Cl    189 CCL4  -0.0812 
 995 C       -2.2317    13.2903   -11.7090 C.3   189 CCL4   0.3246 
 996 CL      -2.9744    11.6902   -11.5276 Cl    189 CCL4  -0.0812 
 997 CL      -0.6527    13.1105   -12.4979 Cl    189 CCL4  -0.0812 
 998 CL      -3.2792    14.3204   -12.7068 Cl    189 CCL4  -0.0812 
 999 CL      -0.0795     7.3501    -7.6429 Cl    190 CCL4  -0.0812 
1000 C        0.8344     5.8936    -7.1996 C.3   190 CCL4   0.3246 
1001 CL       1.9599     5.4817    -8.5046 Cl    190 CCL4  -0.0812 
1002 CL      -0.2917     4.5474    -6.9297 Cl    190 CCL4  -0.0812 
1003 CL       1.7589     6.1933    -5.7180 Cl    190 CCL4  -0.0812 
1004 CL       2.1086    -0.2127    -4.3048 Cl    191 CCL4  -0.0812 
1005 C        2.7040     1.4536    -4.1618 C.3   191 CCL4   0.3246 
1006 CL       1.3740     2.5868    -4.4740 Cl    191 CCL4  -0.0812 
1007 CL       3.9987     1.7247    -5.3456 Cl    191 CCL4  -0.0812 
1008 CL       3.3372     1.7142    -2.5238 Cl    191 CCL4  -0.0812 
1009 CL      28.1899     5.9034    -0.8728 Cl    192 CCL4  -0.0812 
1010 C       28.5221     6.9976     0.4876 C.3   192 CCL4   0.3246 
1011 CL      29.6671     8.2550    -0.0265 Cl    192 CCL4  -0.0812 
1012 CL      27.0068     7.7608     1.0124 Cl    192 CCL4  -0.0812 
1013 CL      29.2235     6.0747     1.8341 Cl    192 CCL4  -0.0812 
1014 CL       3.5311    16.0240     1.8437 Cl    193 CCL4  -0.0812 
1015 C        4.5677    15.3739     0.5579 C.3   193 CCL4   0.3246 
1016 CL       4.7651    16.5981    -0.7154 Cl    193 CCL4  -0.0812 
1017 CL       3.8177    13.9140    -0.1256 Cl    193 CCL4  -0.0812 
1018 CL       6.1584    14.9655     1.2354 Cl    193 CCL4  -0.0812 
1019 CL       1.6511     8.0628    -0.3748 Cl    194 CCL4  -0.0812 
1020 C        1.0089     9.1372    -1.6320 C.3   194 CCL4   0.3246 
1021 CL       0.7495     8.2099    -3.1169 Cl    194 CCL4  -0.0812 
1022 CL       2.1596    10.4521    -1.9441 Cl    194 CCL4  -0.0812 
1023 CL      -0.5363     9.8209    -1.0995 Cl    194 CCL4  -0.0812 
1024 CL      -3.6020     6.0117    -2.2204 Cl    195 CCL4  -0.0812 
1025 C       -2.4156     5.3501    -3.3610 C.3   195 CCL4   0.3246 
1026 CL      -3.0848     3.9057    -4.1480 Cl    195 CCL4  -0.0812 
1027 CL      -0.9291     4.9104    -2.4951 Cl    195 CCL4  -0.0812 
1028 CL      -2.0468     6.5777    -4.5848 Cl    195 CCL4  -0.0812 
1029 CL       4.6738     7.3144    -2.2874 Cl    196 CCL4  -0.0812 
1030 C        4.4116     5.5792    -2.5529 C.3   196 CCL4   0.3246 
1031 CL       5.3698     4.6443    -1.3895 Cl    196 CCL4  -0.0812 
1032 CL       4.9121     5.1537    -4.2040 Cl    196 CCL4  -0.0812 
1033 CL       2.6925     5.2041    -2.3277 Cl    196 CCL4  -0.0812 
1034 CL       0.4627    19.1744    25.2124 Cl    197 CCL4  -0.0812 
1035 C       -0.8555    20.2323    24.6640 C.3   197 CCL4   0.3246 
1036 CL      -2.1545    20.2276    25.8747 Cl    197 CCL4  -0.0812 
1037 CL      -1.4907    19.6367    23.1165 Cl    197 CCL4  -0.0812 
1038 CL      -0.2428    21.8858    24.4485 Cl    197 CCL4  -0.0812 
1039 CL      -3.8022    13.4808     5.4791 Cl    198 CCL4  -0.0812 
1040 C       -2.7193    12.3041     6.2502 C.3   198 CCL4   0.3246 
1041 CL      -3.0958    10.6822     5.6341 Cl    198 CCL4  -0.0812 
1042 CL      -2.9519    12.3511     8.0112 Cl    198 CCL4  -0.0812 
1043 CL      -1.0299    12.7033     5.8730 Cl    198 CCL4  -0.0812 
1044 CL      -7.8274     3.6287    10.3884 Cl    199 CCL4  -0.0812 
1045 C       -7.7082     4.9400     9.1978 C.3   199 CCL4   0.3246 
1046 CL      -8.7825     4.5902     7.8277 Cl    199 CCL4  -0.0812 
1047 CL      -6.0366     5.0698     8.6235 Cl    199 CCL4  -0.0812 
1048 CL      -8.1782     6.4750     9.9537 Cl    199 CCL4  -0.0812 
1049 CL     -10.5757    14.1180    12.7761 Cl    200 CCL4  -0.0812 
1050 C      -10.6318    12.4560    12.1529 C.3   200 CCL4   0.3246 
1051 CL      -9.1609    11.5947    12.6439 Cl    200 CCL4  -0.0812 
1052 CL     -10.7357    12.4895    10.3806 Cl    200 CCL4  -0.0812 
1053 CL     -12.0532    11.6212    12.8147 Cl    200 CCL4  -0.0812 
1054 CL      -7.1204    12.2565     9.4868 Cl    201 CCL4  -0.0812 
1055 C       -7.0607    10.4933     9.2908 C.3   201 CCL4   0.3246 
1056 CL      -5.7211    10.0724     8.2111 Cl    201 CCL4  -0.0812 
1057 CL      -8.5869     9.9216     8.5902 Cl    201 CCL4  -0.0812 
1058 CL      -6.8077     9.7218    10.8691 Cl    201 CCL4  -0.0812 
1059 CL      31.6471     3.6444     6.2535 Cl    202 CCL4  -0.0812 
1060 C       29.9782     3.3756     6.7957 C.3   202 CCL4   0.3246 
1061 CL      29.6908     1.6332     6.9951 Cl    202 CCL4  -0.0812 
1062 CL      28.8506     4.0253     5.5869 Cl    202 CCL4  -0.0812 
1063 CL      29.7236     4.2011     8.3479 Cl    202 CCL4  -0.0812 
1064 CL      -7.8451     2.0411    13.6372 Cl    203 CCL4  -0.0812 
1065 C       -7.6305     1.7911    15.3805 C.3   203 CCL4   0.3246 
1066 CL      -6.7560     0.2704    15.6643 Cl    203 CCL4  -0.0812 
1067 CL      -9.2203     1.7175    16.1668 Cl    203 CCL4  -0.0812 
1068 CL      -6.7024     3.1436    16.0536 Cl    203 CCL4  -0.0812 
1069 CL     -11.2133     4.8287    11.2604 Cl    204 CCL4  -0.0812 
1070 C      -10.9705     5.1406    12.9914 C.3   204 CCL4   0.3246 
1071 CL      -9.2637     5.5298    13.2915 Cl    204 CCL4  -0.0812 
1072 CL     -11.4145     3.6996    13.9280 Cl    204 CCL4  -0.0812 
1073 CL     -11.9949     6.5031    13.4889 Cl    204 CCL4  -0.0812 
1074 CL       5.7963     1.8552     7.7417 Cl    205 CCL4  -0.0812 
1075 C        6.9712     1.8737     6.4098 C.3   205 CCL4   0.3246 
1076 CL       6.1944     2.4899     4.9367 Cl    205 CCL4  -0.0812 
1077 CL       7.5504     0.2268     6.1133 Cl    205 CCL4  -0.0812 
1078 CL       8.3463     2.9114     6.8470 Cl    205 CCL4  -0.0812 
1079 CL      -2.8638     9.0523     1.4842 Cl    206 CCL4  -0.0812 
1080 C       -1.7855     7.7517     2.0215 C.3   206 CCL4   0.3246 
1081 CL      -1.5075     6.6166     0.6857 Cl    206 CCL4  -0.0812 
1082 CL      -2.5379     6.8998     3.3782 Cl    206 CCL4  -0.0812 
1083 CL      -0.2388     8.4387     2.5493 Cl    206 CCL4  -0.0812 
1084 CL      -5.6923     8.6215     4.1063 Cl    207 CCL4  -0.0812 
1085 C       -5.8522     7.2992     5.2824 C.3   207 CCL4   0.3246 
1086 CL      -7.3104     7.5556     6.2587 Cl    207 CCL4  -0.0812 
1087 CL      -4.4259     7.2619     6.3388 Cl    207 CCL4  -0.0812 
1088 CL      -5.9861     5.7508     4.4278 Cl    207 CCL4  -0.0812 
1089 CL     -11.5139     8.3433     2.7184 Cl    208 CCL4  -0.0812 
1090 C      -11.2559     7.8550     4.4043 C.3   208 CCL4   0.3246 
1091 CL     -12.8160     7.4319     5.1399 Cl    208 CCL4  -0.0812 
1092 CL     -10.5056     9.1933     5.3006 Cl    208 CCL4  -0.0812 
1093 CL     -10.1852     6.4439     4.4542 Cl    208 CCL4  -0.0812 
1094 CL      -9.0413    13.6428     4.0857 Cl    209 CCL4  -0.0812 
1095 C       -8.3352    13.1804     5.6456 C.3   209 CCL4   0.3246 
1096 CL      -9.6413    12.7445     6.7659 Cl    209 CCL4  -0.0812 
1097 CL      -7.4092    14.5451     6.3070 Cl    209 CCL4  -0.0812 
1098 CL      -7.2562    11.7879     5.4199 Cl    209 CCL4  -0.0812 
1099 CL      28.8633     9.8895     3.4606 Cl    210 CCL4  -0.0812 
1100 C       29.1922    11.5374     4.0358 C.3   210 CCL4   0.3246 
1101 CL      28.4014    11.7818     5.6080 Cl    210 CCL4  -0.0812 
1102 CL      28.5546    12.7044     2.8588 Cl    210 CCL4  -0.0812 
1103 CL      30.9448    11.7744     4.2128 Cl    210 CCL4  -0.0812 
1104 CL     -11.3085     7.1149     8.3082 Cl    211 CCL4  -0.0812 
1105 C      -12.1344     8.3128     9.3251 C.3   211 CCL4   0.3246 
1106 CL     -12.4413     9.7859     8.3780 Cl    211 CCL4  -0.0812 
1107 CL     -11.1151     8.7040    10.7272 Cl    211 CCL4  -0.0812 
1108 CL     -13.6780     7.6407     9.8899 Cl    211 CCL4  -0.0812 
1109 CL       9.0031    11.4712    10.7735 Cl    212 CCL4  -0.0812 
1110 C        7.8765    10.1201    10.5537 C.3   212 CCL4   0.3246 
1111 CL       6.6262    10.1726    11.8147 Cl    212 CCL4  -0.0812 
1112 CL       8.7628     8.5842    10.6634 Cl    212 CCL4  -0.0812 
1113 CL       7.1171    10.2610     8.9577 Cl    212 CCL4  -0.0812 
1114 CL       6.9650     5.4355    11.6893 Cl    213 CCL4  -0.0812 
1115 C        5.3346     5.9977    11.2622 C.3   213 CCL4   0.3246 
1116 CL       5.4522     7.2506    10.0130 Cl    213 CCL4  -0.0812 
1117 CL       4.5418     6.6772    12.6999 Cl    213 CCL4  -0.0812 
1118 CL       4.3817     4.6345    10.6390 Cl    213 CCL4  -0.0812 
1119 CL       5.7472     5.3980     7.1141 Cl    214 CCL4  -0.0812 
1120 C        6.8085     6.6452     6.4404 C.3   214 CCL4   0.3246 
1121 CL       8.2170     6.8480     7.5014 Cl    214 CCL4  -0.0812 
1122 CL       5.9163     8.1751     6.3256 Cl    214 CCL4  -0.0812 
1123 CL       7.3471     6.1485     4.8247 Cl    214 CCL4  -0.0812 
1124 CL      -7.5154     6.2520    20.1406 Cl    215 CCL4  -0.0812 
1125 C       -7.4596     4.4806    20.0951 C.3   215 CCL4   0.3246 
1126 CL      -8.7901     3.8826    19.0834 Cl    215 CCL4  -0.0812 
1127 CL      -7.6319     3.8391    21.7420 Cl    215 CCL4  -0.0812 
1128 CL      -5.9056     3.9569    19.4131 Cl    215 CCL4  -0.0812 
1129 CL      -4.2773     9.7080    15.7646 Cl    216 CCL4  -0.0812 
1130 C       -4.1425     9.8551    17.5298 C.3   216 CCL4   0.3246 
1131 CL      -3.9700    11.5678    17.9666 Cl    216 CCL4  -0.0812 
1132 CL      -2.7237     8.9516    18.0952 Cl    216 CCL4  -0.0812 
1133 CL      -5.5999     9.1935    18.2957 Cl    216 CCL4  -0.0812 
1134 CL      -4.3568    14.1623    10.9872 Cl    217 CCL4  -0.0812 
1135 C       -5.3023    14.0612    12.4883 C.3   217 CCL4   0.3246 
1136 CL      -4.5130    15.0247    13.7540 Cl    217 CCL4  -0.0812 
1137 CL      -5.4047    12.3694    13.0151 Cl    217 CCL4  -0.0812 
1138 CL      -6.9382    14.6879    12.2027 Cl    217 CCL4  -0.0812 
1139 CL      -2.6975     6.8755    14.4409 Cl    218 CCL4  -0.0812 
1140 C       -4.0250     5.8106    14.9437 C.3   218 CCL4   0.3246 
1141 CL      -5.4794     6.1883    13.9954 Cl    218 CCL4  -0.0812 
1142 CL      -4.3533     6.0464    16.6726 Cl    218 CCL4  -0.0812 
1143 CL      -3.5616     4.1241    14.6664 Cl    218 CCL4  -0.0812 
1144 CL      35.7594     6.7146    16.5556 Cl    219 CCL4  -0.0812 
1145 C       34.3297     7.7605    16.6433 C.3   219 CCL4   0.3246 
1146 CL      34.1127     8.6045    15.0950 Cl    219 CCL4  -0.0812 
1147 CL      34.5510     8.9556    17.9359 Cl    219 CCL4  -0.0812 
1148 CL      32.8986     6.7675    16.9905 Cl    219 CCL4  -0.0812 
1149 CL       1.8996     3.5027    13.1445 Cl    220 CCL4  -0.0812 
1150 C        3.1336     2.4584    13.8745 C.3   220 CCL4   0.3246 
1151 CL       2.5568     1.8492    15.4405 Cl    220 CCL4  -0.0812 
1152 CL       4.6346     3.3778    14.1152 Cl    220 CCL4  -0.0812 
1153 CL       3.4413     1.0973    12.7854 Cl    220 CCL4  -0.0812 
1154 CL     -11.6235    15.5664     2.4184 Cl    221 CCL4  -0.0812 
1155 C      -10.2506    16.4596     1.7311 C.3   221 CCL4   0.3246 
1156 CL      -9.3218    17.2307     3.0359 Cl    221 CCL4  -0.0812 
1157 CL     -10.8590    17.7044     0.6213 Cl    221 CCL4  -0.0812 
1158 CL      -9.2045    15.3352     0.8414 Cl    221 CCL4  -0.0812 
1159 CL     -13.8909    15.2458     5.2539 Cl    222 CCL4  -0.0812 
1160 C      -12.8701    15.6386     6.6524 C.3   222 CCL4   0.3246 
1161 CL     -13.5310    17.0667     7.4757 Cl    222 CCL4  -0.0812 
1162 CL     -11.2150    15.9851     6.1058 Cl    222 CCL4  -0.0812 
1163 CL     -12.8502    14.2604     7.7734 Cl    222 CCL4  -0.0812 
1164 CL       8.2931    14.4400    12.4422 Cl    223 CCL4  -0.0812 
1165 C        8.5310    15.5413    13.8101 C.3   223 CCL4   0.3246 
1166 CL      10.2346    16.0324    13.8763 Cl    223 CCL4  -0.0812 
1167 CL       8.0979    14.7114    15.3197 Cl    223 CCL4  -0.0812 
1168 CL       7.5005    16.9734    13.5970 Cl    223 CCL4  -0.0812 
1169 CL      -3.3872    14.7666     1.9486 Cl    224 CCL4  -0.0812 
1170 C       -5.0994    14.3106     1.8371 C.3   224 CCL4   0.3246 
1171 CL      -5.2929    12.5840     2.2157 Cl    224 CCL4  -0.0812 
1172 CL      -5.6813    14.6303     0.1914 Cl    224 CCL4  -0.0812 
1173 CL      -6.0407    15.2723     2.9920 Cl    224 CCL4  -0.0812 
1174 CL      35.3121    12.7377    18.2730 Cl    225 CCL4  -0.0812 
1175 C       35.1028    12.6080    16.5148 C.3   225 CCL4   0.3246 
1176 CL      33.4374    12.1018    16.1568 Cl    225 CCL4  -0.0812 
1177 CL      36.2428    11.4095    15.8740 Cl    225 CCL4  -0.0812 
1178 CL      35.4224    14.1825    15.7567 Cl    225 CCL4  -0.0812 
1179 CL       1.5930    16.8376     6.7989 Cl    226 CCL4  -0.0812 
1180 C        2.4673    18.0510     7.7568 C.3   226 CCL4   0.3246 
1181 CL       1.7376    19.6497     7.5043 Cl    226 CCL4  -0.0812 
1182 CL       4.1685    18.0893     7.2459 Cl    226 CCL4  -0.0812 
1183 CL       2.3693    17.6283     9.4791 Cl    226 CCL4  -0.0812 
1184 CL      -2.4980     8.8203     8.8581 Cl    227 CCL4  -0.0812 
1185 C       -2.7216     8.6154    10.6037 C.3   227 CCL4   0.3246 
1186 CL      -3.1517    10.1756    11.3322 Cl    227 CCL4  -0.0812 
1187 CL      -1.2099     8.0274    11.3189 Cl    227 CCL4  -0.0812 
1188 CL      -4.0193     7.4396    10.8982 Cl    227 CCL4  -0.0812 
1189 CL       2.6245    11.5643     5.2578 Cl    228 CCL4  -0.0812 
1190 C        4.0800    12.5245     4.9100 C.3   228 CCL4   0.3246 
1191 CL       5.3804    12.0552     6.0248 Cl    228 CCL4  -0.0812 
1192 CL       3.7156    14.2510     5.1099 Cl    228 CCL4  -0.0812 
1193 CL       4.6074    12.2337     3.2409 Cl    228 CCL4  -0.0812 
1194 CL       2.1840     8.3852    10.3230 Cl    229 CCL4  -0.0812 
1195 C        2.1577    10.1202     9.9520 C.3   229 CCL4   0.3246 
1196 CL       2.2624    11.0414    11.4651 Cl    229 CCL4  -0.0812 
1197 CL       0.6477    10.5250     9.1114 Cl    229 CCL4  -0.0812 
1198 CL       3.5366    10.5293     8.9113 Cl    229 CCL4  -0.0812 
1199 CL       5.7043    16.1520    10.3341 Cl    230 CCL4  -0.0812 
1200 C        5.4853    14.5044     9.7068 C.3   230 CCL4   0.3246 
1201 CL       4.1002    14.4705     8.5987 Cl    230 CCL4  -0.0812 
1202 CL       5.1752    13.3913    11.0544 Cl    230 CCL4  -0.0812 
1203 CL       6.9541    14.0004     8.8429 Cl    230 CCL4  -0.0812 
1204 CL      -3.9517     2.2913     3.3294 Cl    231 CCL4  -0.0812 
1205 C       -2.3600     2.7830     3.9408 C.3   231 CCL4   0.3246 
1206 CL      -1.5016     1.3615     4.5734 Cl    231 CCL4  -0.0812 
1207 CL      -2.5819     3.9761     5.2377 Cl    231 CCL4  -0.0812 
1208 CL      -1.4172     3.5048     2.6223 Cl    231 CCL4  -0.0812 
1209 CL       3.8023     5.1337     4.0805 Cl    232 CCL4  -0.0812 
1210 C        2.9441     4.0461     2.9694 C.3   232 CCL4   0.3246 
1211 CL       1.9945     2.8890     3.9247 Cl    232 CCL4  -0.0812 
1212 CL       4.1289     3.1779     1.9671 Cl    232 CCL4  -0.0812 
1213 CL       1.8645     4.9967     1.9241 Cl    232 CCL4  -0.0812 
1214 CL      -0.1460     8.7145     6.0831 Cl    233 CCL4  -0.0812 
1215 C        0.7422     7.2315     6.4850 C.3   233 CCL4   0.3246 
1216 CL       0.4826     6.0212     5.2136 Cl    233 CCL4  -0.0812 
1217 CL       0.1630     6.5890     8.0337 Cl    233 CCL4  -0.0812 
1218 CL       2.4720     7.6019     6.6136 Cl    233 CCL4  -0.0812 
1219 CL      -2.5396     4.6170     9.1166 Cl    234 CCL4  -0.0812 
1220 C       -2.5481     3.7271    10.6521 C.3   234 CCL4   0.3246 
1221 CL      -1.4765     4.5359    11.8132 Cl    234 CCL4  -0.0812 
1222 CL      -1.9705     2.0714    10.3902 Cl    234 CCL4  -0.0812 
1223 CL      -4.2044     3.6790    11.2884 Cl    234 CCL4  -0.0812 
1224 CL       1.5051    11.3851     1.5969 Cl    235 CCL4  -0.0812 
1225 C        0.2653    12.6471     1.7089 C.3   235 CCL4   0.3246 
1226 CL      -1.2212    11.9628     2.3923 Cl    235 CCL4  -0.0812 
1227 CL      -0.0651    13.2898     0.0871 Cl    235 CCL4  -0.0812 
1228 CL       0.8469    13.9483     2.7646 Cl    235 CCL4  -0.0812 
1229 CL       2.2010     1.0825     7.0029 Cl    236 CCL4  -0.0812 
1230 C        1.6384     2.5253     7.8694 C.3   236 CCL4   0.3246 
1231 CL       1.7330     2.2515     9.6201 Cl    236 CCL4  -0.0812 
1232 CL      -0.0386     2.8629     7.4154 Cl    236 CCL4  -0.0812 
1233 CL       2.6514     3.9121     7.4332 Cl    236 CCL4  -0.0812 
1234 CL      -0.3668    11.3020    16.8532 Cl    237 CCL4  -0.0812 
1235 C       -0.5606    11.6187    15.1165 C.3   237 CCL4   0.3246 
1236 CL      -0.6521    10.0784    14.2393 Cl    237 CCL4  -0.0812 
1237 CL       0.8323    12.5528    14.5333 Cl    237 CCL4  -0.0812 
1238 CL      -2.0519    12.5430    14.8420 Cl    237 CCL4  -0.0812 
1239 CL       1.5468    14.6512    11.5523 Cl    238 CCL4  -0.0812 
1240 C        0.0362    14.4371    10.6427 C.3   238 CCL4   0.3246 
1241 CL      -0.8689    13.0599    11.3051 Cl    238 CCL4  -0.0812 
1242 CL       0.4187    14.1270     8.9372 Cl    238 CCL4  -0.0812 
1243 CL      -0.9488    15.9101    10.7761 Cl    238 CCL4  -0.0812 
1244 CL       0.2905     7.3529    16.8589 Cl    239 CCL4  -0.0812 
1245 C        0.9411     6.1227    15.7584 C.3   239 CCL4   0.3246 
1246 CL       1.0052     6.7817    14.1092 Cl    239 CCL4  -0.0812 
1247 CL      -0.1097     4.6912    15.7938 Cl    239 CCL4  -0.0812 
1248 CL       2.5779     5.6687    16.2796 Cl    239 CCL4  -0.0812 
1249 CL      -2.2630    16.0507     7.4162 Cl    240 CCL4  -0.0812 
1250 C       -2.2867    17.0306     5.9366 C.3   240 CCL4   0.3246 
1251 CL      -1.5376    18.6064     6.2638 Cl    240 CCL4  -0.0812 
1252 CL      -3.9678    17.2687     5.4126 Cl    240 CCL4  -0.0812 
1253 CL      -1.3745    16.1979     4.6604 Cl    240 CCL4  -0.0812 
1254 CL      10.1666    -8.2143   -17.7934 Cl    241 CCL4  -0.0812 
1255 C        8.5495    -8.1895   -17.0689 C.3   241 CCL4   0.3246 
1256 CL       7.4839    -7.1693   -18.0545 Cl    241 CCL4  -0.0812 
1257 CL       8.6470    -7.5240   -15.4278 Cl    241 CCL4  -0.0812 
1258 CL       7.9093    -9.8444   -16.9994 Cl    241 CCL4  -0.0812 
1259 CL      18.4629   -10.7756   -16.8382 Cl    242 CCL4  -0.0812 
1260 C       19.2414   -11.1492   -15.2867 C.3   242 CCL4   0.3246 
1261 CL      18.0863   -11.9783   -14.2223 Cl    242 CCL4  -0.0812 
1262 CL      19.7753    -9.6428   -14.5158 Cl    242 CCL4  -0.0812 
1263 CL      20.6475   -12.1950   -15.5722 Cl    242 CCL4  -0.0812 
1264 CL      13.0018    19.8357   -14.0846 Cl    243 CCL4  -0.0812 
1265 C       13.2387    21.3074   -15.0496 C.3   243 CCL4   0.3246 
1266 CL      12.2163    21.2370   -16.5003 Cl    243 CCL4  -0.0812 
1267 CL      14.9437    21.4224   -15.5272 Cl    243 CCL4  -0.0812 
1268 CL      12.7952    22.7318   -14.0861 Cl    243 CCL4  -0.0812 
1269 CL       9.1555    -9.0127   -12.1974 Cl    244 CCL4  -0.0812 
1270 C       10.4118   -10.0914   -12.8376 C.3   244 CCL4   0.3246 
1271 CL      11.0727   -11.0735   -11.5136 Cl    244 CCL4  -0.0812 
1272 CL      11.7101    -9.1295   -13.5762 Cl    244 CCL4  -0.0812 
1273 CL       9.7028   -11.1536   -14.0679 Cl    244 CCL4  -0.0812 
1274 CL      18.5070   -16.9366     2.2147 Cl    245 CCL4  -0.0812 
1275 C       16.9239   -17.1126     3.0013 C.3   245 CCL4   0.3246 
1276 CL      15.6858   -17.4464     1.7740 Cl    245 CCL4  -0.0812 
1277 CL      16.5191   -15.6084     3.8542 Cl    245 CCL4  -0.0812 
1278 CL      16.9830   -18.4588     4.1589 Cl    245 CCL4  -0.0812 
1279 CL      12.4699    -0.5191   -12.1105 Cl    246 CCL4  -0.0812 
1280 C       13.1198     1.0349   -12.6649 C.3   246 CCL4   0.3246 
1281 CL      12.1631     2.3574   -11.9692 Cl    246 CCL4  -0.0812 
1282 CL      13.0388     1.1147   -14.4346 Cl    246 CCL4  -0.0812 
1283 CL      14.8091     1.1857   -12.1475 Cl    246 CCL4  -0.0812 
1284 CL      14.2953   -11.7580   -13.1969 Cl    247 CCL4  -0.0812 
1285 C       14.7413   -13.3275   -12.4986 C.3   247 CCL4   0.3246 
1286 CL      16.0802   -13.1023   -11.3564 Cl    247 CCL4  -0.0812 
1287 CL      15.2396   -14.4353   -13.7930 Cl    247 CCL4  -0.0812 
1288 CL      13.3487   -14.0144   -11.6418 Cl    247 CCL4  -0.0812 
1289 CL       9.9718    20.1448   -11.9713 Cl    248 CCL4  -0.0812 
1290 C       10.9825    20.5549   -10.5699 C.3   248 CCL4   0.3246 
1291 CL      11.4745    22.2579   -10.6799 Cl    248 CCL4  -0.0812 
1292 CL      12.4230    19.5168   -10.5540 Cl    248 CCL4  -0.0812 
1293 CL      10.0582    20.2983    -9.0758 Cl    248 CCL4  -0.0812 
1294 CL      19.7844     2.0478   -15.8164 Cl    249 CCL4  -0.0812 
1295 C       18.1683     1.4689   -16.2732 C.3   249 CCL4   0.3246 
1296 CL      18.2729    -0.2221   -16.8044 Cl    249 CCL4  -0.0812 
1297 CL      17.5310     2.4747   -17.5925 Cl    249 CCL4  -0.0812 
1298 CL      17.0848     1.5745   -14.8726 Cl    249 CCL4  -0.0812 
1299 CL      15.5962    -2.4479    21.5734 Cl    250 CCL4  -0.0812 
1300 C       15.0017    -0.8712    21.0154 C.3   250 CCL4   0.3246 
1301 CL      14.6220     0.1460    22.4189 Cl    250 CCL4  -0.0812 
1302 CL      13.5345    -1.1001    20.0402 Cl    250 CCL4  -0.0812 
1303 CL      16.2557    -0.0827    20.0359 Cl    250 CCL4  -0.0812 
1304 CL      13.3325   -14.2183     2.8043 Cl    251 CCL4  -0.0812 
1305 C       13.8496   -13.2966     1.3764 C.3   251 CCL4   0.3246 
1306 CL      14.8614   -11.9309     1.8872 Cl    251 CCL4  -0.0812 
1307 CL      12.4190   -12.6898     0.5199 Cl    251 CCL4  -0.0812 
1308 CL      14.7830   -14.3455     0.2890 Cl    251 CCL4  -0.0812 
1309 CL       7.1277   -11.2305     2.4889 Cl    252 CCL4  -0.0812 
1310 C        8.6904   -11.8478     1.9106 C.3   252 CCL4   0.3246 
1311 CL       9.5816   -12.5757     3.2637 Cl    252 CCL4  -0.0812 
1312 CL       9.6373   -10.5114     1.2258 Cl    252 CCL4  -0.0812 
1313 CL       8.4174   -13.0775     0.6600 Cl    252 CCL4  -0.0812 
1314 CL      17.2279   -14.1398    20.9917 Cl    253 CCL4  -0.0812 
1315 C       17.1198   -15.3908    22.2461 C.3   253 CCL4   0.3246 
1316 CL      15.4231   -15.6109    22.7182 Cl    253 CCL4  -0.0812 
1317 CL      18.0679   -14.8936    23.6624 Cl    253 CCL4  -0.0812 
1318 CL      17.7631   -16.9196    21.6118 Cl    253 CCL4  -0.0812 
1319 CL      15.2476   -10.0053    21.3506 Cl    254 CCL4  -0.0812 
1320 C       14.2560   -11.3458    21.9604 C.3   254 CCL4   0.3246 
1321 CL      12.7243   -10.7160    22.5998 Cl    254 CCL4  -0.0812 
1322 CL      15.1283   -12.1769    23.2620 Cl    254 CCL4  -0.0812 
1323 CL      13.9268   -12.4862    20.6376 Cl    254 CCL4  -0.0812 
1324 CL       9.9196   -15.6905   -15.7606 Cl    255 CCL4  -0.0812 
1325 C       10.9144   -14.4111   -16.4879 C.3   255 CCL4   0.3246 
1326 CL      11.9085   -15.1035   -17.7842 Cl    255 CCL4  -0.0812 
1327 CL      11.9715   -13.7099   -15.2468 Cl    255 CCL4  -0.0812 
1328 CL       9.8646   -13.1439   -17.1602 Cl    255 CCL4  -0.0812 
1329 CL       9.5253    -1.1961   -14.2481 Cl    256 CCL4  -0.0812 
1330 C        8.6141    -0.9563   -12.7414 C.3   256 CCL4   0.3246 
1331 CL       6.8773    -1.1501   -13.0624 Cl    256 CCL4  -0.0812 
1332 CL       8.9241     0.6774   -12.1179 Cl    256 CCL4  -0.0812 
1333 CL       9.1320    -2.1533   -11.5347 Cl    256 CCL4  -0.0812 
1334 CL      11.3427    21.4976    -3.4689 Cl    257 CCL4  -0.0812 
1335 C       11.7103    19.8045    -3.8634 C.3   257 CCL4   0.3246 
1336 CL      10.4394    18.7532    -3.2059 Cl    257 CCL4  -0.0812 
1337 CL      13.2706    19.3528    -3.1519 Cl    257 CCL4  -0.0812 
1338 CL      11.7939    19.6107    -5.6254 Cl    257 CCL4  -0.0812 
1339 CL      17.3360   -12.1382    -1.2374 Cl    258 CCL4  -0.0812 
1340 C       18.6528   -13.0121    -0.4242 C.3   258 CCL4   0.3246 
1341 CL      18.2270   -13.2865     1.2765 Cl    258 CCL4  -0.0812 
1342 CL      20.1407   -12.0467    -0.5154 Cl    258 CCL4  -0.0812 
1343 CL      18.9102   -14.5818    -1.2138 Cl    258 CCL4  -0.0812 
1344 CL      17.6681   -13.9765    -6.8804 Cl    259 CCL4  -0.0812 
1345 C       18.3693   -12.6064    -5.9998 C.3   259 CCL4   0.3246 
1346 CL      19.5545   -11.7809    -7.0341 Cl    259 CCL4  -0.0812 
1347 CL      19.1774   -13.1987    -4.5344 Cl    259 CCL4  -0.0812 
1348 CL      17.0737   -11.4798    -5.5489 Cl    259 CCL4  -0.0812 
1349 CL      16.7091   -10.4374    -9.0135 Cl    260 CCL4  -0.0812 
1350 C       14.9672   -10.3116    -8.7023 C.3   260 CCL4   0.3246 
1351 CL      14.6843    -9.1821    -7.3592 Cl    260 CCL4  -0.0812 
1352 CL      14.3316   -11.9138    -8.2833 Cl    260 CCL4  -0.0812 
1353 CL      14.1469    -9.7201   -10.1601 Cl    260 CCL4  -0.0812 
1354 CL      15.0152    22.6573   -11.2161 Cl    261 CCL4  -0.0812 
1355 C       15.6023    22.6568    -9.5409 C.3   261 CCL4   0.3246 
1356 CL      15.2738    24.2367    -8.8046 Cl    261 CCL4  -0.0812 
1357 CL      17.3506    22.3464    -9.5269 Cl    261 CCL4  -0.0812 
1358 CL      14.7711    21.3897    -8.6154 Cl    261 CCL4  -0.0812 
1359 CL      13.9868    -2.0102    -1.8772 Cl    262 CCL4  -0.0812 
1360 C       14.2244    -0.3259    -1.3650 C.3   262 CCL4   0.3246 
1361 CL      15.0704    -0.2943     0.1967 Cl    262 CCL4  -0.0812 
1362 CL      12.6503     0.4800    -1.1909 Cl    262 CCL4  -0.0812 
1363 CL      15.1918     0.5226    -2.5874 Cl    262 CCL4  -0.0812 
1364 CL      17.4079    22.4945    -5.7994 Cl    263 CCL4  -0.0812 
1365 C       16.2872    21.4753    -4.8727 C.3   263 CCL4   0.3246 
1366 CL      14.6417    22.1182    -5.0329 Cl    263 CCL4  -0.0812 
1367 CL      16.7585    21.4793    -3.1600 Cl    263 CCL4  -0.0812 
1368 CL      16.3396    19.8132    -5.4980 Cl    263 CCL4  -0.0812 
1369 CL      22.1002    -8.9322    -5.7101 Cl    264 CCL4  -0.0812 
1370 C       23.4376    -9.1027    -4.5550 C.3   264 CCL4   0.3246 
1371 CL      23.0278   -10.3514    -3.3594 Cl    264 CCL4  -0.0812 
1372 CL      23.7096    -7.5550    -3.7276 Cl    264 CCL4  -0.0812 
1373 CL      24.9142    -9.5749    -5.4236 Cl    264 CCL4  -0.0812 
1374 CL      13.1089   -15.0426    -3.0012 Cl    265 CCL4  -0.0812 
1375 C       14.4126   -14.1561    -3.8199 C.3   265 CCL4   0.3246 
1376 CL      14.1922   -14.2666    -5.5765 Cl    265 CCL4  -0.0812 
1377 CL      15.9806   -14.8606    -3.3785 Cl    265 CCL4  -0.0812 
1378 CL      14.3715   -12.4528    -3.3257 Cl    265 CCL4  -0.0812 
1379 CL      11.8689   -14.6075    -8.4265 Cl    266 CCL4  -0.0812 
1380 C       10.9022   -15.6703    -7.3865 C.3   266 CCL4   0.3246 
1381 CL       9.3753   -16.0569    -8.2020 Cl    266 CCL4  -0.0812 
1382 CL      10.5636   -14.8583    -5.8440 Cl    266 CCL4  -0.0812 
1383 CL      11.8038   -17.1639    -7.0765 Cl    266 CCL4  -0.0812 
1384 CL      15.4430    19.6024    -0.3139 Cl    267 CCL4  -0.0812 
1385 C       14.0617    19.1070     0.6845 C.3   267 CCL4   0.3246 
1386 CL      14.5524    19.0428     2.3927 Cl    267 CCL4  -0.0812 
1387 CL      13.5081    17.5038     0.1605 Cl    267 CCL4  -0.0812 
1388 CL      12.7425    20.2807     0.4891 Cl    267 CCL4  -0.0812 
1389 CL      17.4123    -6.7850   -14.1227 Cl    268 CCL4  -0.0812 
1390 C       16.2266    -8.0009   -13.6074 C.3   268 CCL4   0.3246 
1391 CL      15.7689    -8.9980   -15.0024 Cl    268 CCL4  -0.0812 
1392 CL      14.7854    -7.1950   -12.9522 Cl    268 CCL4  -0.0812 
1393 CL      16.9461    -9.0292   -12.3535 Cl    268 CCL4  -0.0812 
1394 CL      15.7385    -1.9540    -6.7854 Cl    269 CCL4  -0.0812 
1395 C       16.0096    -2.4884    -8.4569 C.3   269 CCL4   0.3246 
1396 CL      15.4392    -4.1536    -8.6570 Cl    269 CCL4  -0.0812 
1397 CL      17.7435    -2.4162    -8.8204 Cl    269 CCL4  -0.0812 
1398 CL      15.1178    -1.4367    -9.5714 Cl    269 CCL4  -0.0812 
1399 CL      12.5985    -3.8094   -10.7996 Cl    270 CCL4  -0.0812 
1400 C       11.7449    -5.2936   -10.3412 C.3   270 CCL4   0.3246 
1401 CL      12.8914    -6.4452    -9.6281 Cl    270 CCL4  -0.0812 
1402 CL      11.0093    -6.0108   -11.7863 Cl    270 CCL4  -0.0812 
1403 CL      10.4816    -4.9045    -9.1578 Cl    270 CCL4  -0.0812 
1404 CL      17.6032    -3.1721   -14.7711 Cl    271 CCL4  -0.0812 
1405 C       15.8930    -3.2276   -14.3035 C.3   271 CCL4   0.3246 
1406 CL      15.7521    -3.7362   -12.6073 Cl    271 CCL4  -0.0812 
1407 CL      15.0251    -4.3719   -15.3469 Cl    271 CCL4  -0.0812 
1408 CL      15.1888    -1.6149   -14.4934 Cl    271 CCL4  -0.0812 
1409 CL      10.7116     1.4882    -7.1833 Cl    272 CCL4  -0.0812 
1410 C       11.1821    -0.2024    -6.9187 C.3   272 CCL4   0.3246 
1411 CL       9.8613    -1.0559    -6.1004 Cl    272 CCL4  -0.0812 
1412 CL      12.6394    -0.2598    -5.9035 Cl    272 CCL4  -0.0812 
1413 CL      11.5040    -0.9816    -8.4830 Cl    272 CCL4  -0.0812 
1414 CL      13.0964    -7.4630   -19.8886 Cl    273 CCL4  -0.0812 
1415 C       13.6874    -6.3752   -18.6138 C.3   273 CCL4   0.3246 
1416 CL      12.7868    -4.8437   -18.6710 Cl    273 CCL4  -0.0812 
1417 CL      15.4162    -6.0605   -18.8662 Cl    273 CCL4  -0.0812 
1418 CL      13.4540    -7.1352   -17.0257 Cl    273 CCL4  -0.0812 
1419 CL      20.2335    -2.7278    -3.1282 Cl    274 CCL4  -0.0812 
1420 C       18.6187    -3.0221    -2.4526 C.3   274 CCL4   0.3246 
1421 CL      18.6968    -4.3868    -1.3249 Cl    274 CCL4  -0.0812 
1422 CL      17.4821    -3.4012    -3.7643 Cl    274 CCL4  -0.0812 
1423 CL      18.0638    -1.5775    -1.5830 Cl    274 CCL4  -0.0812 
1424 CL      18.0877    -5.5380    -6.7838 Cl    275 CCL4  -0.0812 
1425 C       18.7298    -6.6991    -7.9622 C.3   275 CCL4   0.3246 
1426 CL      17.6123    -6.8510    -9.3352 Cl    275 CCL4  -0.0812 
1427 CL      18.9205    -8.2809    -7.1851 Cl    275 CCL4  -0.0812 
1428 CL      20.3068    -6.1295    -8.5396 Cl    275 CCL4  -0.0812 
1429 CL      22.8205    -3.5321    -8.1693 Cl    276 CCL4  -0.0812 
1430 C       22.1750    -3.3448    -6.5277 C.3   276 CCL4   0.3246 
1431 CL      20.5270    -2.6976    -6.6217 Cl    276 CCL4  -0.0812 
1432 CL      23.2123    -2.2293    -5.6197 Cl    276 CCL4  -0.0812 
1433 CL      22.1402    -4.9159    -5.7016 Cl    276 CCL4  -0.0812 
1434 CL      13.9162    -9.5907    -0.8987 Cl    277 CCL4  -0.0812 
1435 C       12.6614    -9.1936    -2.0931 C.3   277 CCL4   0.3246 
1436 CL      11.7372    -7.7850    -1.5385 Cl    277 CCL4  -0.0812 
1437 CL      11.5580   -10.5704    -2.2879 Cl    277 CCL4  -0.0812 
1438 CL      13.4294    -8.8248    -3.6503 Cl    277 CCL4  -0.0812 
1439 CL      12.6555    -3.8595    -6.4397 Cl    278 CCL4  -0.0812 
1440 C       12.9678    -5.3071    -5.4619 C.3   278 CCL4   0.3246 
1441 CL      12.0142    -6.6644    -6.0934 Cl    278 CCL4  -0.0812 
1442 CL      12.5060    -4.9902    -3.7794 Cl    278 CCL4  -0.0812 
1443 CL      14.6940    -5.7117    -5.5299 Cl    278 CCL4  -0.0812 
1444 CL      19.3234     2.7495    -5.3945 Cl    279 CCL4  -0.0812 
1445 C       19.4734     0.9931    -5.5804 C.3   279 CCL4   0.3246 
1446 CL      20.9729     0.4516    -4.8048 Cl    279 CCL4  -0.0812 
1447 CL      19.5104     0.5870    -7.3075 Cl    279 CCL4  -0.0812 
1448 CL      18.0913     0.1898    -4.8106 Cl    279 CCL4  -0.0812 
1449 CL       8.0137    -2.2417    -1.3925 Cl    280 CCL4  -0.0812 
1450 C        9.7043    -2.7861    -1.3758 C.3   280 CCL4   0.3246 
1451 CL       9.7609    -4.5484    -1.5582 Cl    280 CCL4  -0.0812 
1452 CL      10.4722    -2.3225     0.1588 Cl    280 CCL4  -0.0812 
1453 CL      10.5714    -2.0360    -2.7280 Cl    280 CCL4  -0.0812 
1454 CL      15.2945    -5.6715    -1.7479 Cl    281 CCL4  -0.0812 
1455 C       14.9657    -5.3883    -0.0265 C.3   281 CCL4   0.3246 
1456 CL      15.5111    -6.7925     0.9114 Cl    281 CCL4  -0.0812 
1457 CL      13.2222    -5.1474     0.2121 Cl    281 CCL4  -0.0812 
1458 CL      15.8376    -3.9418     0.5202 Cl    281 CCL4  -0.0812 
1459 CL      18.1540    -7.9241    -1.4849 Cl    282 CCL4  -0.0812 
1460 C       18.5321    -8.1611    -3.1997 C.3   282 CCL4   0.3246 
1461 CL      19.3501    -9.7215    -3.4080 Cl    282 CCL4  -0.0812 
1462 CL      19.5998    -6.8579    -3.7610 Cl    282 CCL4  -0.0812 
1463 CL      17.0246    -8.1441    -4.1364 Cl    282 CCL4  -0.0812 
1464 CL       8.8996    -7.0155    -4.0576 Cl    283 CCL4  -0.0812 
1465 C        8.2594    -5.8545    -5.2393 C.3   283 CCL4   0.3246 
1466 CL       9.2764    -4.4045    -5.2635 Cl    283 CCL4  -0.0812 
1467 CL       6.6109    -5.3908    -4.7852 Cl    283 CCL4  -0.0812 
1468 CL       8.2464    -6.5943    -6.8518 Cl    283 CCL4  -0.0812 
1469 CL       8.9607   -10.0226    -6.0364 Cl    284 CCL4  -0.0812 
1470 C       10.2509   -10.6574    -7.0782 C.3   284 CCL4   0.3246 
1471 CL       9.6054   -11.9782    -8.0737 Cl    284 CCL4  -0.0812 
1472 CL      11.5778   -11.2650    -6.0644 Cl    284 CCL4  -0.0812 
1473 CL      10.8545    -9.3661    -8.1393 Cl    284 CCL4  -0.0812 
1474 CL      21.9109    -5.7995    -1.1189 Cl    285 CCL4  -0.0812 
1475 C       21.7323    -6.9368     0.2305 C.3   285 CCL4   0.3246 
1476 CL      23.1399    -6.7973     1.3041 Cl    285 CCL4  -0.0812 
1477 CL      21.6302    -8.5912    -0.4064 Cl    285 CCL4  -0.0812 
1478 CL      20.2542    -6.5563     1.1376 Cl    285 CCL4  -0.0812 
1479 CL      23.6678    -7.1105   -13.9594 Cl    286 CCL4  -0.0812 
1480 C       25.1264    -6.8491   -12.9792 C.3   286 CCL4   0.3246 
1481 CL      25.3632    -5.1094   -12.7161 Cl    286 CCL4  -0.0812 
1482 CL      26.5390    -7.5131   -13.8278 Cl    286 CCL4  -0.0812 
1483 CL      24.9371    -7.6659   -11.4133 Cl    286 CCL4  -0.0812 
1484 CL      20.7703   -14.1222   -12.5145 Cl    287 CCL4  -0.0812 
1485 C       19.7277   -15.2331   -11.6026 C.3   287 CCL4   0.3246 
1486 CL      19.1747   -14.4386   -10.1141 Cl    287 CCL4  -0.0812 
1487 CL      20.6416   -16.6984   -11.1870 Cl    287 CCL4  -0.0812 
1488 CL      18.3272   -15.6766   -12.5980 Cl    287 CCL4  -0.0812 
1489 CL      24.4824    -1.7530   -11.1942 Cl    288 CCL4  -0.0812 
1490 C       26.0552    -1.2882   -10.5127 C.3   288 CCL4   0.3246 
1491 CL      25.9749    -1.3788    -8.7420 Cl    288 CCL4  -0.0812 
1492 CL      26.4477     0.3723   -11.0053 Cl    288 CCL4  -0.0812 
1493 CL      27.3161    -2.3906   -11.1045 Cl    288 CCL4  -0.0812 
1494 CL      21.3976    -2.5169   -16.7485 Cl    289 CCL4  -0.0812 
1495 C       23.0942    -2.8709   -16.3516 C.3   289 CCL4   0.3246 
1496 CL      23.4000    -2.5046   -14.6400 Cl    289 CCL4  -0.0812 
1497 CL      24.1576    -1.8731   -17.3659 Cl    289 CCL4  -0.0812 
1498 CL      23.4273    -4.5883   -16.6577 Cl    289 CCL4  -0.0812 
1499 CL      22.1339   -12.1280    -9.7526 Cl    290 CCL4  -0.0812 
1500 C       21.5376   -10.6621   -10.5594 C.3   290 CCL4   0.3246 
1501 CL      19.8034   -10.8337   -10.9013 Cl    290 CCL4  -0.0812 
1502 CL      22.4197   -10.4215   -12.0826 Cl    290 CCL4  -0.0812 
1503 CL      21.7955    -9.2641    -9.4973 Cl    290 CCL4  -0.0812 
1504 CL      22.7592     3.1146    -6.8472 Cl    291 CCL4  -0.0812 
1505 C       23.8980     1.7805    -7.1305 C.3   291 CCL4   0.3246 
1506 CL      24.5293     1.2012    -5.5747 Cl    291 CCL4  -0.0812 
1507 CL      25.2469     2.3559    -8.1332 Cl    291 CCL4  -0.0812 
1508 CL      23.0572     0.4553    -7.9643 Cl    291 CCL4  -0.0812 
1509 CL      23.3396    -0.6051    -2.1928 Cl    292 CCL4  -0.0812 
1510 C       24.7227    -1.7077    -2.0350 C.3   292 CCL4   0.3246 
1511 CL      26.0054    -1.2088    -3.1595 Cl    292 CCL4  -0.0812 
1512 CL      24.2134    -3.3657    -2.4175 Cl    292 CCL4  -0.0812 
1513 CL      25.3318    -1.6536    -0.3674 Cl    292 CCL4  -0.0812 
1514 CL      21.8241    -3.6593     2.8367 Cl    293 CCL4  -0.0812 
1515 C       21.5182    -2.1381     1.9735 C.3   293 CCL4   0.3246 
1516 CL      22.8640    -1.0147     2.2489 Cl    293 CCL4  -0.0812 
1517 CL      20.0060    -1.4121     2.5575 Cl    293 CCL4  -0.0812 
1518 CL      21.3810    -2.4689     0.2381 Cl    293 CCL4  -0.0812 
1519 CL      20.7525    -7.2294    23.0464 Cl    294 CCL4  -0.0812 
1520 C       19.7375    -6.4597    21.8098 C.3   294 CCL4   0.3246 
1521 CL      18.6737    -5.2654    22.5790 Cl    294 CCL4  -0.0812 
1522 CL      18.7505    -7.6959    21.0012 Cl    294 CCL4  -0.0812 
1523 CL      20.7750    -5.6484    20.6168 Cl    294 CCL4  -0.0812 
1524 CL      25.9229    -5.0094    -9.1031 Cl    295 CCL4  -0.0812 
1525 C       25.7315    -6.1516    -7.7599 C.3   295 CCL4   0.3246 
1526 CL      25.8478    -5.2758    -6.2175 Cl    295 CCL4  -0.0812 
1527 CL      27.0070    -7.3858    -7.8423 Cl    295 CCL4  -0.0812 
1528 CL      24.1446    -6.9356    -7.8834 Cl    295 CCL4  -0.0812 
1529 CL      20.6679    -4.9226   -14.0440 Cl    296 CCL4  -0.0812 
1530 C       20.5691    -5.2429   -12.3014 C.3   296 CCL4   0.3246 
1531 CL      19.1639    -4.3972   -11.6225 Cl    296 CCL4  -0.0812 
1532 CL      22.0446    -4.6562   -11.5097 Cl    296 CCL4  -0.0812 
1533 CL      20.4035    -6.9910   -12.0301 Cl    296 CCL4  -0.0812 
1534 CL      20.2621    -0.8779   -13.5748 Cl    297 CCL4  -0.0812 
1535 C       19.5588    -0.2738   -12.0614 C.3   297 CCL4   0.3246 
1536 CL      19.5704     1.5003   -12.0619 Cl    297 CCL4  -0.0812 
1537 CL      20.5111    -0.8759   -10.6864 Cl    297 CCL4  -0.0812 
1538 CL      17.8836    -0.8395   -11.9319 Cl    297 CCL4  -0.0812 
1539 CL       7.3291    -9.4609    10.0574 Cl    298 CCL4  -0.0812 
1540 C        7.1289    -7.7796    10.5853 C.3   298 CCL4   0.3246 
1541 CL       6.1369    -6.9123     9.3968 Cl    298 CCL4  -0.0812 
1542 CL       8.7206    -6.9993    10.7119 Cl    298 CCL4  -0.0812 
1543 CL       6.3260    -7.7514    12.1698 Cl    298 CCL4  -0.0812 
1544 CL      19.3238   -11.3956     7.4070 Cl    299 CCL4  -0.0812 
1545 C       19.8775   -11.1325     9.0713 C.3   299 CCL4   0.3246 
1546 CL      19.1945   -12.3771    10.1348 Cl    299 CCL4  -0.0812 
1547 CL      19.3365    -9.5362     9.6216 Cl    299 CCL4  -0.0812 
1548 CL      21.6500   -11.2204     9.1209 Cl    299 CCL4  -0.0812 
1549 CL      17.0118    19.3551    12.3246 Cl    300 CCL4  -0.0812 
1550 C       17.2927    20.8332    11.3829 C.3   300 CCL4   0.3246 
1551 CL      16.6846    20.6009     9.7298 Cl    300 CCL4  -0.0812 
1552 CL      19.0357    21.1738    11.3336 Cl    300 CCL4  -0.0812 
1553 CL      16.4439    22.1959    12.1461 Cl    300 CCL4  -0.0812 
1554 CL      11.5479    -8.1601    12.8074 Cl    301 CCL4  -0.0812 
1555 C       11.7694    -9.8729    12.4034 C.3   301 CCL4   0.3246 
1556 CL      11.6342   -10.8386    13.8827 Cl    301 CCL4  -0.0812 
1557 CL      13.3718   -10.1141    11.6853 Cl    301 CCL4  -0.0812 
1558 CL      10.5281   -10.3798    11.2411 Cl    301 CCL4  -0.0812 
1559 CL      11.7273    -0.9785    12.3504 Cl    302 CCL4  -0.0812 
1560 C       12.4793     0.3187    13.2968 C.3   302 CCL4   0.3246 
1561 CL      11.5108     0.6275    14.7541 Cl    302 CCL4  -0.0812 
1562 CL      12.5721     1.7947    12.3129 Cl    302 CCL4  -0.0812 
1563 CL      14.1152    -0.1781    13.7638 Cl    302 CCL4  -0.0812 
1564 CL      16.6723   -11.0202    12.2938 Cl    303 CCL4  -0.0812 
1565 C       16.3627   -12.6005    13.0385 C.3   303 CCL4   0.3246 
1566 CL      17.7972   -13.1134    13.9415 Cl    303 CCL4  -0.0812 
1567 CL      16.0098   -13.7936    11.7755 Cl    303 CCL4  -0.0812 
1568 CL      14.9801   -12.4822    14.1451 Cl    303 CCL4  -0.0812 
1569 CL      13.3386    20.4390    11.3635 Cl    304 CCL4  -0.0812 
1570 C       12.7310    20.4834    13.0319 C.3   304 CCL4   0.3246 
1571 CL      14.0517    20.1430    14.1668 Cl    304 CCL4  -0.0812 
1572 CL      11.4700    19.2520    13.2251 Cl    304 CCL4  -0.0812 
1573 CL      12.0612    22.0920    13.3767 Cl    304 CCL4  -0.0812 
1574 CL      20.8012     0.9219     7.8698 Cl    305 CCL4  -0.0812 
1575 C       19.1236     0.7665     7.3157 C.3   305 CCL4   0.3246 
1576 CL      18.5134    -0.8351     7.7667 Cl    305 CCL4  -0.0812 
1577 CL      19.0561     0.9517     5.5500 Cl    305 CCL4  -0.0812 
1578 CL      18.1249     2.0188     8.0835 Cl    305 CCL4  -0.0812 
1579 CL      22.0415   -13.1184     2.5257 Cl    306 CCL4  -0.0812 
1580 C       21.7106   -13.4660     4.2361 C.3   306 CCL4   0.3246 
1581 CL      22.7802   -14.7685     4.7959 Cl    306 CCL4  -0.0812 
1582 CL      20.0201   -13.9775     4.4175 Cl    306 CCL4  -0.0812 
1583 CL      22.0034   -12.0058     5.2051 Cl    306 CCL4  -0.0812 
1584 CL      17.6118   -14.5176     7.0475 Cl    307 CCL4  -0.0812 
1585 C       18.6733   -15.6380     7.9229 C.3   307 CCL4   0.3246 
1586 CL      18.0590   -15.8416     9.5738 Cl    307 CCL4  -0.0812 
1587 CL      20.3244   -14.9821     7.9770 Cl    307 CCL4  -0.0812 
1588 CL      18.6931   -17.2115     7.0986 Cl    307 CCL4  -0.0812 
1589 CL      13.4495   -17.4481     4.9480 Cl    308 CCL4  -0.0812 
1590 C       13.4697   -16.7782     6.5937 C.3   308 CCL4   0.3246 
1591 CL      12.1568   -17.5080     7.5418 Cl    308 CCL4  -0.0812 
1592 CL      13.2448   -15.0177     6.5255 Cl    308 CCL4  -0.0812 
1593 CL      15.0287   -17.1374     7.3623 Cl    308 CCL4  -0.0812 
1594 CL      16.3737    -9.4886     6.9074 Cl    309 CCL4  -0.0812 
1595 C       15.2940   -10.8412     7.3093 C.3   309 CCL4   0.3246 
1596 CL      13.6718   -10.2145     7.6394 Cl    309 CCL4  -0.0812 
1597 CL      15.9007   -11.6825     8.7492 Cl    309 CCL4  -0.0812 
1598 CL      15.2134   -11.9764     5.9460 Cl    309 CCL4  -0.0812 
1599 CL       7.7376   -11.8926     6.4524 Cl    310 CCL4  -0.0812 
1600 C        9.0608   -12.5186     7.4598 C.3   310 CCL4   0.3246 
1601 CL       8.4538   -12.8617     9.0932 Cl    310 CCL4  -0.0812 
1602 CL      10.3517   -11.3064     7.5521 Cl    310 CCL4  -0.0812 
1603 CL       9.7079   -14.0090     6.7415 Cl    310 CCL4  -0.0812 
1604 CL      13.5420   -15.9633    10.5200 Cl    311 CCL4  -0.0812 
1605 C       12.3031   -14.7254    10.8132 C.3   311 CCL4   0.3246 
1606 CL      12.6772   -13.2720     9.8629 Cl    311 CCL4  -0.0812 
1607 CL      12.2715   -14.3150    12.5415 Cl    311 CCL4  -0.0812 
1608 CL      10.7182   -15.3547    10.3243 Cl    311 CCL4  -0.0812 
1609 CL       9.3911     1.2838    10.3945 Cl    312 CCL4  -0.0812 
1610 C        8.3004     1.2627    11.7986 C.3   312 CCL4   0.3246 
1611 CL       6.6491     1.6386    11.2680 Cl    312 CCL4  -0.0812 
1612 CL       8.8332     2.4783    12.9793 Cl    312 CCL4  -0.0812 
1613 CL       8.3243    -0.3470    12.5500 Cl    312 CCL4  -0.0812 
1614 CL      12.1101    22.1798    19.8363 Cl    313 CCL4  -0.0812 
1615 C       13.8456    22.1487    19.4665 C.3   313 CCL4   0.3246 
1616 CL      14.1138    21.2753    17.9431 Cl    313 CCL4  -0.0812 
1617 CL      14.7117    21.3180    20.7727 Cl    313 CCL4  -0.0812 
1618 CL      14.4473    23.8141    19.3184 Cl    313 CCL4  -0.0812 
1619 CL      16.8853   -12.7952    17.4347 Cl    314 CCL4  -0.0812 
1620 C       18.4136   -12.0310    17.9229 C.3   314 CCL4   0.3246 
1621 CL      19.0232   -11.0101    16.6052 Cl    314 CCL4  -0.0812 
1622 CL      19.6117   -13.2893    18.2929 Cl    314 CCL4  -0.0812 
1623 CL      18.1397   -11.0249    19.3599 Cl    314 CCL4  -0.0812 
1624 CL      16.1275    -9.3143    15.4095 Cl    315 CCL4  -0.0812 
1625 C       15.0569    -8.8970    16.7615 C.3   315 CCL4   0.3246 
1626 CL      16.0153    -8.1788    18.0706 Cl    315 CCL4  -0.0812 
1627 CL      14.2442   -10.3570    17.3605 Cl    315 CCL4  -0.0812 
1628 CL      13.8401    -7.7345    16.2028 Cl    315 CCL4  -0.0812 
1629 CL      18.6974    23.5856    14.9912 Cl    316 CCL4  -0.0812 
1630 C       17.2996    23.0956    15.9684 C.3   316 CCL4   0.3246 
1631 CL      15.8474    23.9518    15.4045 Cl    316 CCL4  -0.0812 
1632 CL      17.6033    23.4960    17.6725 Cl    316 CCL4  -0.0812 
1633 CL      17.0618    21.3434    15.8040 Cl    316 CCL4  -0.0812 
1634 CL      12.1157   -13.1488    16.3914 Cl    317 CCL4  -0.0812 
1635 C       11.2906   -14.6419    16.8704 C.3   317 CCL4   0.3246 
1636 CL       9.7635   -14.8031    15.9801 Cl    317 CCL4  -0.0812 
1637 CL      10.9669   -14.5903    18.6161 Cl    317 CCL4  -0.0812 
1638 CL      12.3283   -16.0260    16.4877 Cl    317 CCL4  -0.0812 
1639 CL      16.6131    -5.3378    10.7615 Cl    318 CCL4  -0.0812 
1640 C       16.3306    -6.9421    11.4659 C.3   318 CCL4   0.3246 
1641 CL      15.8991    -8.0828    10.1776 Cl    318 CCL4  -0.0812 
1642 CL      15.0066    -6.8500    12.6462 Cl    318 CCL4  -0.0812 
1643 CL      17.8081    -7.4978    12.2748 Cl    318 CCL4  -0.0812 
1644 CL      15.9724    -2.3379    17.0822 Cl    319 CCL4  -0.0812 
1645 C       14.5255    -3.2748    16.6630 C.3   319 CCL4   0.3246 
1646 CL      14.2424    -4.5049    17.9126 Cl    319 CCL4  -0.0812 
1647 CL      14.7649    -4.0605    15.0886 Cl    319 CCL4  -0.0812 
1648 CL      13.1232    -2.1917    16.5646 Cl    319 CCL4  -0.0812 
1649 CL      11.5079    -4.6183    13.0877 Cl    320 CCL4  -0.0812 
1650 C       10.4294    -4.6778    14.4939 C.3   320 CCL4   0.3246 
1651 CL      11.3238    -5.3069    15.8873 Cl    320 CCL4  -0.0812 
1652 CL       9.0568    -5.7539    14.1571 Cl    320 CCL4  -0.0812 
1653 CL       9.8453    -3.0375    14.8486 Cl    320 CCL4  -0.0812 
1654 CL      15.4671    -2.6366     8.2427 Cl    321 CCL4  -0.0812 
1655 C       14.6317    -1.5605     9.3796 C.3   321 CCL4   0.3246 
1656 CL      14.8402    -2.1777    11.0302 Cl    321 CCL4  -0.0812 
1657 CL      12.9056    -1.4979     8.9767 Cl    321 CCL4  -0.0812 
1658 CL      15.3090     0.0764     9.2673 Cl    321 CCL4  -0.0812 
1659 CL      18.1069    -4.6062     3.3351 Cl    322 CCL4  -0.0812 
1660 C       17.8986    -3.8378     4.9221 C.3   322 CCL4   0.3246 
1661 CL      17.0646    -4.9516     6.0236 Cl    322 CCL4  -0.0812 
1662 CL      16.9437    -2.3497     4.7386 Cl    322 CCL4  -0.0812 
1663 CL      19.4897    -3.4437     5.5948 Cl    322 CCL4  -0.0812 
1664 CL      12.3679   -10.5281     4.0672 Cl    323 CCL4  -0.0812 
1665 C       12.9125    -8.8606     3.7941 C.3   323 CCL4   0.3246 
1666 CL      12.2785    -7.8172     5.0801 Cl    323 CCL4  -0.0812 
1667 CL      12.3206    -8.2865     2.2217 Cl    323 CCL4  -0.0812 
1668 CL      14.6848    -8.8072     3.8153 Cl    323 CCL4  -0.0812 
1669 CL      13.1161    -3.0303     5.5024 Cl    324 CCL4  -0.0812 
1670 C       13.1531    -3.7484     3.8796 C.3   324 CCL4   0.3246 
1671 CL      13.3992    -2.4673     2.6760 Cl    324 CCL4  -0.0812 
1672 CL      11.6263    -4.5825     3.5559 Cl    324 CCL4  -0.0812 
1673 CL      14.4692    -4.9307     3.7810 Cl    324 CCL4  -0.0812 
1674 CL       9.8047    -2.0968     7.4821 Cl    325 CCL4  -0.0812 
1675 C        8.7884    -2.7806     8.7618 C.3   325 CCL4   0.3246 
1676 CL       7.9814    -4.2352     8.1479 Cl    325 CCL4  -0.0812 
1677 CL       7.5689    -1.5877     9.2521 Cl    325 CCL4  -0.0812 
1678 CL       9.8021    -3.2026    10.1561 Cl    325 CCL4  -0.0812 
1679 CL      12.0701    -7.6151     9.2056 Cl    326 CCL4  -0.0812 
1680 C       12.6588    -6.0626     8.5839 C.3   326 CCL4   0.3246 
1681 CL      11.4078    -5.3230     7.5669 Cl    326 CCL4  -0.0812 
1682 CL      14.1329    -6.3128     7.6265 Cl    326 CCL4  -0.0812 
1683 CL      13.0229    -4.9957     9.9486 Cl    326 CCL4  -0.0812 
1684 CL       9.0056    -8.0416     7.2578 Cl    327 CCL4  -0.0812 
1685 C        8.3198    -7.8544     5.6351 C.3   327 CCL4   0.3246 
1686 CL       6.5664    -8.1221     5.6957 Cl    327 CCL4  -0.0812 
1687 CL       9.0594    -9.0389     4.5423 Cl    327 CCL4  -0.0812 
1688 CL       8.6526    -6.2148     5.0459 Cl    327 CCL4  -0.0812 
1689 CL      20.2894    -9.8584     2.7619 Cl    328 CCL4  -0.0812 
1690 C       18.5439    -9.6925     3.0382 C.3   328 CCL4   0.3246 
1691 CL      17.9764   -11.0502     4.0256 Cl    328 CCL4  -0.0812 
1692 CL      17.6955    -9.6970     1.4817 Cl    328 CCL4  -0.0812 
1693 CL      18.2112    -8.1687     3.8836 Cl    328 CCL4  -0.0812 
1694 CL      17.9540    -5.1567    18.2961 Cl    329 CCL4  -0.0812 
1695 C       18.8955    -5.7828    16.9266 C.3   329 CCL4   0.3246 
1696 CL      17.8393    -5.9335    15.5075 Cl    329 CCL4  -0.0812 
1697 CL      19.5623    -7.3768    17.3419 Cl    329 CCL4  -0.0812 
1698 CL      20.2245    -4.6621    16.5591 Cl    329 CCL4  -0.0812 
1699 CL      20.1616     0.2601    20.0800 Cl    330 CCL4  -0.0812 
1700 C       20.0520    -1.3433    19.3213 C.3   330 CCL4   0.3246 
1701 CL      21.6702    -2.0709    19.2292 Cl    330 CCL4  -0.0812 
1702 CL      19.3776    -1.1780    17.6857 Cl    330 CCL4  -0.0812 
1703 CL      18.9978    -2.3869    20.2948 Cl    330 CCL4  -0.0812 
1704 CL      10.0594    -6.0272    19.1626 Cl    331 CCL4  -0.0812 
1705 C        9.2570    -4.4580    18.9746 C.3   331 CCL4   0.3246 
1706 CL      10.4643    -3.1959    18.6599 Cl    331 CCL4  -0.0812 
1707 CL       8.3864    -4.0668    20.4631 Cl    331 CCL4  -0.0812 
1708 CL       8.1075    -4.5456    17.6270 Cl    331 CCL4  -0.0812 
1709 CL       8.4253    -9.2129    19.0431 Cl    332 CCL4  -0.0812 
1710 C        9.6965   -10.0916    18.1709 C.3   332 CCL4   0.3246 
1711 CL       9.0062   -11.5616    17.4571 Cl    332 CCL4  -0.0812 
1712 CL      10.9918   -10.5386    19.3008 Cl    332 CCL4  -0.0812 
1713 CL      10.3560    -9.0578    16.8846 Cl    332 CCL4  -0.0812 
1714 CL      25.5798    -8.9777     9.9489 Cl    333 CCL4  -0.0812 
1715 C       26.2861    -7.4610     9.3563 C.3   333 CCL4   0.3246 
1716 CL      24.9809    -6.3517     8.8911 Cl    333 CCL4  -0.0812 
1717 CL      27.3181    -7.7975     7.9526 Cl    333 CCL4  -0.0812 
1718 CL      27.2686    -6.7200    10.6346 Cl    333 CCL4  -0.0812 
1719 CL      22.5420   -12.9306    12.2043 Cl    334 CCL4  -0.0812 
1720 C       21.8183   -14.2481    13.1489 C.3   334 CCL4   0.3246 
1721 CL      21.2192   -13.6070    14.6942 Cl    334 CCL4  -0.0812 
1722 CL      23.0457   -15.4923    13.4647 Cl    334 CCL4  -0.0812 
1723 CL      20.4770   -14.9661    12.2316 Cl    334 CCL4  -0.0812 
1724 CL      24.2398    -2.4239    13.2018 Cl    335 CCL4  -0.0812 
1725 C       25.5388    -1.9885    12.0687 C.3   335 CCL4   0.3246 
1726 CL      27.0144    -1.5965    12.9775 Cl    335 CCL4  -0.0812 
1727 CL      25.0407    -0.5777    11.1121 Cl    335 CCL4  -0.0812 
1728 CL      25.8610    -3.3535    10.9812 Cl    335 CCL4  -0.0812 
1729 CL      27.0450    -9.1485     4.0967 Cl    336 CCL4  -0.0812 
1730 C       25.3885    -8.9823     4.7184 C.3   336 CCL4   0.3246 
1731 CL      25.1938   -10.0091     6.1558 Cl    336 CCL4  -0.0812 
1732 CL      24.2283    -9.4942     3.4733 Cl    336 CCL4  -0.0812 
1733 CL      25.0912    -7.2821     5.1451 Cl    336 CCL4  -0.0812 
1734 CL      22.4423    -1.5358     5.8157 Cl    337 CCL4  -0.0812 
1735 C       24.1488    -1.9091     6.1251 C.3   337 CCL4   0.3246 
1736 CL      24.3629    -2.2439     7.8538 Cl    337 CCL4  -0.0812 
1737 CL      25.1583    -0.5233     5.6587 Cl    337 CCL4  -0.0812 
1738 CL      24.6268    -3.3334     5.1768 Cl    337 CCL4  -0.0812 
1739 CL      22.4386    -9.9831    14.8631 Cl    338 CCL4  -0.0812 
1740 C       21.5204    -9.2739    13.5185 C.3   338 CCL4   0.3246 
1741 CL      20.0736   -10.2531    13.2072 Cl    338 CCL4  -0.0812 
1742 CL      22.5331    -9.2455    12.0611 Cl    338 CCL4  -0.0812 
1743 CL      21.0400    -7.6173    13.9425 Cl    338 CCL4  -0.0812 
1744 CL      20.2694     2.1930    15.4453 Cl    339 CCL4  -0.0812 
1745 C       22.0253     1.9863    15.6063 C.3   339 CCL4   0.3246 
1746 CL      22.7829     3.5734    15.8576 Cl    339 CCL4  -0.0812 
1747 CL      22.6809     1.2431    14.1304 Cl    339 CCL4  -0.0812 
1748 CL      22.3707     0.9371    16.9970 Cl    339 CCL4  -0.0812 
1749 CL      22.2609    -8.3006     7.1609 Cl    340 CCL4  -0.0812 
1750 C       21.3851    -6.9336     6.4469 C.3   340 CCL4   0.3246 
1751 CL      22.1185    -5.4099     6.9863 Cl    340 CCL4  -0.0812 
1752 CL      19.6902    -7.0015     6.9664 Cl    340 CCL4  -0.0812 
1753 CL      21.4723    -7.0246     4.6770 Cl    340 CCL4  -0.0812 
1754 CL      26.6498    -5.4740    14.0251 Cl    341 CCL4  -0.0812 
1755 C       25.2746    -6.5983    13.9510 C.3   341 CCL4   0.3246 
1756 CL      24.3531    -6.5128    15.4674 Cl    341 CCL4  -0.0812 
1757 CL      25.8734    -8.2546    13.7128 Cl    341 CCL4  -0.0812 
1758 CL      24.2158    -6.1526    12.5978 Cl    341 CCL4  -0.0812 
1759 CL      19.6637    -4.0539     9.3717 Cl    342 CCL4  -0.0812 
1760 C       20.7782    -4.7302    10.5791 C.3   342 CCL4   0.3246 
1761 CL      20.1779    -4.3769    12.2137 Cl    342 CCL4  -0.0812 
1762 CL      22.3845    -4.0107    10.3635 Cl    342 CCL4  -0.0812 
1763 CL      20.8969    -6.4858    10.3630 Cl    342 CCL4  -0.0812 
1764 CL      21.1508    -0.8557    11.1190 Cl    343 CCL4  -0.0812 
1765 C       19.6981    -0.4337    12.0462 C.3   343 CCL4   0.3246 
1766 CL      19.4903     1.3274    12.0196 Cl    343 CCL4  -0.0812 
1767 CL      19.8735    -0.9973    13.7225 Cl    343 CCL4  -0.0812 
1768 CL      18.2766    -1.2038    11.3150 Cl    343 CCL4  -0.0812 
1769 CL       6.1449    14.7708   -13.5857 Cl    344 CCL4  -0.0812 
1770 C        6.0685    16.1403   -12.4568 C.3   344 CCL4   0.3246 
1771 CL       4.4471    16.8653   -12.5019 Cl    344 CCL4  -0.0812 
1772 CL       7.2701    17.3615   -12.9263 Cl    344 CCL4  -0.0812 
1773 CL       6.4121    15.5652   -10.8136 Cl    344 CCL4  -0.0812 
1774 CL      15.4862    12.2218   -18.3668 Cl    345 CCL4  -0.0812 
1775 C       15.3312    11.7321   -16.6672 C.3   345 CCL4   0.3246 
1776 CL      14.9813     9.9938   -16.5855 Cl    345 CCL4  -0.0812 
1777 CL      14.0062    12.6350   -15.9079 Cl    345 CCL4  -0.0812 
1778 CL      16.8481    12.0806   -15.8107 Cl    345 CCL4  -0.0812 
1779 CL      17.0946     4.1758   -12.0463 Cl    346 CCL4  -0.0812 
1780 C       16.3098     5.1416   -13.3126 C.3   346 CCL4   0.3246 
1781 CL      14.8300     4.3280   -13.8527 Cl    346 CCL4  -0.0812 
1782 CL      17.4150     5.3169   -14.6924 Cl    346 CCL4  -0.0812 
1783 CL      15.8950     6.7408   -12.6622 Cl    346 CCL4  -0.0812 
1784 CL       9.9522    16.7205   -10.6116 Cl    347 CCL4  -0.0812 
1785 C       10.8031    15.3122   -11.2771 C.3   347 CCL4   0.3246 
1786 CL      11.1993    14.1807    -9.9668 Cl    347 CCL4  -0.0812 
1787 CL      12.2993    15.8512   -12.0653 Cl    347 CCL4  -0.0812 
1788 CL       9.7616    14.5009   -12.4655 Cl    347 CCL4  -0.0812 
1789 CL      18.5384     5.5063     2.8030 Cl    348 CCL4  -0.0812 
1790 C       16.8026     5.1698     2.9343 C.3   348 CCL4   0.3246 
1791 CL      16.1042     5.0192     1.3080 Cl    348 CCL4  -0.0812 
1792 CL      16.0191     6.5085     3.7980 Cl    348 CCL4  -0.0812 
1793 CL      16.5751     3.6484     3.8252 Cl    348 CCL4  -0.0812 
1794 CL      14.4133    11.9952   -10.4126 Cl    349 CCL4  -0.0812 
1795 C       13.7231    11.0805   -11.7713 C.3   349 CCL4   0.3246 
1796 CL      15.0145    10.5673   -12.8756 Cl    349 CCL4  -0.0812 
1797 CL      12.5711    12.1086   -12.6441 Cl    349 CCL4  -0.0812 
1798 CL      12.8856     9.6439   -11.1593 Cl    349 CCL4  -0.0812 
1799 CL      12.0103     4.3534   -15.9810 Cl    350 CCL4  -0.0812 
1800 C       10.7351     3.2769   -16.5837 C.3   350 CCL4   0.3246 
1801 CL      11.4486     2.0520   -17.6513 Cl    350 CCL4  -0.0812 
1802 CL       9.5329     4.2236   -17.4835 Cl    350 CCL4  -0.0812 
1803 CL       9.9464     2.4730   -15.2150 Cl    350 CCL4  -0.0812 
1804 CL      15.4587     4.2304    -8.7224 Cl    351 CCL4  -0.0812 
1805 C       15.4455     2.4983    -8.3335 C.3   351 CCL4   0.3246 
1806 CL      16.7433     1.6807    -9.2264 Cl    351 CCL4  -0.0812 
1807 CL      13.8789     1.8078    -8.7909 Cl    351 CCL4  -0.0812 
1808 CL      15.6953     2.2690    -6.5926 Cl    351 CCL4  -0.0812 
1809 CL      12.6371     5.8483   -11.3470 Cl    352 CCL4  -0.0812 
1810 C       11.9601     6.1569    -9.7362 C.3   352 CCL4   0.3246 
1811 CL      13.1279     7.0908    -8.7787 Cl    352 CCL4  -0.0812 
1812 CL      11.6299     4.6159    -8.9212 Cl    352 CCL4  -0.0812 
1813 CL      10.4455     7.0693    -9.8980 Cl    352 CCL4  -0.0812 
1814 CL      13.0749     8.4381     2.1798 Cl    353 CCL4  -0.0812 
1815 C       14.0850     8.9171     0.7986 C.3   353 CCL4   0.3246 
1816 CL      15.7411     9.2412     1.3489 Cl    353 CCL4  -0.0812 
1817 CL      13.4153    10.3853     0.0546 Cl    353 CCL4  -0.0812 
1818 CL      14.1164     7.6064    -0.3969 Cl    353 CCL4  -0.0812 
1819 CL       8.9528    12.7524     2.9950 Cl    354 CCL4  -0.0812 
1820 C        9.0783    11.6940     1.5739 C.3   354 CCL4   0.3246 
1821 CL       9.6179    10.0788     2.0759 Cl    354 CCL4  -0.0812 
1822 CL      10.2489    12.3698     0.4301 Cl    354 CCL4  -0.0812 
1823 CL       7.4965    11.5806     0.7805 Cl    354 CCL4  -0.0812 
1824 CL      15.1050     7.7660    19.8179 Cl    355 CCL4  -0.0812 
1825 C       16.1714     6.9250    20.9636 C.3   355 CCL4   0.3246 
1826 CL      15.2192     6.3398    22.3468 Cl    355 CCL4  -0.0812 
1827 CL      17.4230     8.0475    21.5376 Cl    355 CCL4  -0.0812 
1828 CL      16.9434     5.5483    20.1487 Cl    355 CCL4  -0.0812 
1829 CL      13.0366    11.1341    19.1116 Cl    356 CCL4  -0.0812 
1830 C       11.7535    10.8060    20.2921 C.3   356 CCL4   0.3246 
1831 CL      10.1989    10.6567    19.4469 Cl    356 CCL4  -0.0812 
1832 CL      11.6623    12.1438    21.4555 Cl    356 CCL4  -0.0812 
1833 CL      12.1166     9.2945    21.1508 Cl    356 CCL4  -0.0812 
1834 CL      12.8683     7.7412   -14.6936 Cl    357 CCL4  -0.0812 
1835 C       11.2331     8.4078   -14.8877 C.3   357 CCL4   0.3246 
1836 CL      11.3369    10.1301   -15.3031 Cl    357 CCL4  -0.0812 
1837 CL      10.3374     8.2231   -13.3672 Cl    357 CCL4  -0.0812 
1838 CL      10.3834     7.5438   -16.1853 Cl    357 CCL4  -0.0812 
1839 CL      12.3621     5.5258    -3.0047 Cl    358 CCL4  -0.0812 
1840 C       12.3633     4.5615    -4.4955 C.3   358 CCL4   0.3246 
1841 CL      10.7245     4.5103    -5.1719 Cl    358 CCL4  -0.0812 
1842 CL      12.9043     2.9118    -4.1326 Cl    358 CCL4  -0.0812 
1843 CL      13.4639     5.2948    -5.6767 Cl    358 CCL4  -0.0812 
1844 CL      19.9803     3.9498    -0.3720 Cl    359 CCL4  -0.0812 
1845 C       19.4158     2.3379     0.1158 C.3   359 CCL4   0.3246 
1846 CL      19.6133     2.1486     1.8714 Cl    359 CCL4  -0.0812 
1847 CL      20.3619     1.0915    -0.7251 Cl    359 CCL4  -0.0812 
1848 CL      17.7025     2.1622    -0.3119 Cl    359 CCL4  -0.0812 
1849 CL      18.7238     9.0068    -2.8113 Cl    360 CCL4  -0.0812 
1850 C       19.2809     8.8144    -1.1389 C.3   360 CCL4   0.3246 
1851 CL      19.0228    10.3378    -0.2632 Cl    360 CCL4  -0.0812 
1852 CL      21.0098     8.4038    -1.1399 Cl    360 CCL4  -0.0812 
1853 CL      18.3652     7.5115    -0.3524 Cl    360 CCL4  -0.0812 
1854 CL       8.6671     3.6983    -2.3129 Cl    361 CCL4  -0.0812 
1855 C        8.5849     1.9258    -2.3321 C.3   361 CCL4   0.3246 
1856 CL       6.9575     1.4075    -2.8199 Cl    361 CCL4  -0.0812 
1857 CL       8.9465     1.2898    -0.7125 Cl    361 CCL4  -0.0812 
1858 CL       9.7720     1.3056    -3.4925 Cl    361 CCL4  -0.0812 
1859 CL      16.1475     9.3450    -8.7616 Cl    362 CCL4  -0.0812 
1860 C       17.2645    10.2268    -7.6969 C.3   362 CCL4   0.3246 
1861 CL      18.6491    10.8130    -8.6416 Cl    362 CCL4  -0.0812 
1862 CL      17.8431     9.1418    -6.4141 Cl    362 CCL4  -0.0812 
1863 CL      16.4247    11.6128    -6.9693 Cl    362 CCL4  -0.0812 
1864 CL      16.4867    15.6266    -7.4875 Cl    363 CCL4  -0.0812 
1865 C       14.7312    15.8838    -7.5715 C.3   363 CCL4   0.3246 
1866 CL      14.2355    16.9658    -6.2555 Cl    363 CCL4  -0.0812 
1867 CL      13.8980    14.3254    -7.4113 Cl    363 CCL4  -0.0812 
1868 CL      14.3042    16.6188    -9.1296 Cl    363 CCL4  -0.0812 
1869 CL      21.1098     6.0515   -10.0226 Cl    364 CCL4  -0.0812 
1870 C       19.8274     5.6004    -8.8796 C.3   364 CCL4   0.3246 
1871 CL      18.3272     6.4480    -9.3079 Cl    364 CCL4  -0.0812 
1872 CL      20.3132     6.0542    -7.2321 Cl    364 CCL4  -0.0812 
1873 CL      19.5592     3.8480    -8.9585 Cl    364 CCL4  -0.0812 
1874 CL      18.7116     5.5676    -3.3570 Cl    365 CCL4  -0.0812 
1875 C       17.0403     5.4340    -3.9400 C.3   365 CCL4   0.3246 
1876 CL      17.0234     5.5691    -5.7107 Cl    365 CCL4  -0.0812 
1877 CL      16.0520     6.7322    -3.2437 Cl    365 CCL4  -0.0812 
1878 CL      16.3728     3.8659    -3.4465 Cl    365 CCL4  -0.0812 
1879 CL      21.2226    13.9119    -4.6366 Cl    366 CCL4  -0.0812 
1880 C       20.5259    12.7551    -3.4826 C.3   366 CCL4   0.3246 
1881 CL      18.9127    12.2627    -4.0429 Cl    366 CCL4  -0.0812 
1882 CL      20.3996    13.5180    -1.8829 Cl    366 CCL4  -0.0812 
1883 CL      21.5760    11.3270    -3.3706 Cl    366 CCL4  -0.0812 
1884 CL      12.5398     9.3804    -3.3467 Cl    367 CCL4  -0.0812 
1885 C       13.8411    10.0643    -4.3387 C.3   367 CCL4   0.3246 
1886 CL      14.2580     8.9156    -5.6261 Cl    367 CCL4  -0.0812 
1887 CL      15.2671    10.3728    -3.3238 Cl    367 CCL4  -0.0812 
1888 CL      13.2909    11.5886    -5.0602 Cl    367 CCL4  -0.0812 
1889 CL      11.4036    10.3191    -7.8544 Cl    368 CCL4  -0.0812 
1890 C       10.1311     9.5487    -6.8827 C.3   368 CCL4   0.3246 
1891 CL       8.6681     9.3478    -7.8681 Cl    368 CCL4  -0.0812 
1892 CL       9.7573    10.5662    -5.4819 Cl    368 CCL4  -0.0812 
1893 CL      10.6916     7.9639    -6.3132 Cl    368 CCL4  -0.0812 
1894 CL       7.9914     4.6724     1.0678 Cl    369 CCL4  -0.0812 
1895 C        9.5631     4.6273     1.8896 C.3   369 CCL4   0.3246 
1896 CL      10.0154     6.2692     2.3848 Cl    369 CCL4  -0.0812 
1897 CL      10.7988     3.9816     0.7873 Cl    369 CCL4  -0.0812 
1898 CL       9.4281     3.5863     3.3206 Cl    369 CCL4  -0.0812 
1899 CL      13.0691    14.0495    -1.2902 Cl    370 CCL4  -0.0812 
1900 C       11.7069    14.5533    -2.3157 C.3   370 CCL4   0.3246 
1901 CL      10.5755    15.5407    -1.3683 Cl    370 CCL4  -0.0812 
1902 CL      10.8665    13.1169    -2.9344 Cl    370 CCL4  -0.0812 
1903 CL      12.3139    15.5125    -3.6783 Cl    370 CCL4  -0.0812 
1904 CL      16.9436    14.3353    -1.5714 Cl    371 CCL4  -0.0812 
1905 C       16.5542    15.2204    -3.0614 C.3   371 CCL4   0.3246 
1906 CL      18.0482    15.7378    -3.8693 Cl    371 CCL4  -0.0812 
1907 CL      15.5888    16.6527    -2.6598 Cl    371 CCL4  -0.0812 
1908 CL      15.6339    14.1605    -4.1468 Cl    371 CCL4  -0.0812 
1909 CL       8.9318    15.8644    -5.0262 Cl    372 CCL4  -0.0812 
1910 C        9.6128    15.3712    -6.5908 C.3   372 CCL4   0.3246 
1911 CL       8.3017    15.1150    -7.7590 Cl    372 CCL4  -0.0812 
1912 CL      10.5174    13.8591    -6.3976 Cl    372 CCL4  -0.0812 
1913 CL      10.7043    16.6384    -7.1840 Cl    372 CCL4  -0.0812 
1914 CL      19.0307    17.5707    -0.8373 Cl    373 CCL4  -0.0812 
1915 C       18.6835    17.5938     0.9040 C.3   373 CCL4   0.3246 
1916 CL      18.4502    19.2730     1.4372 Cl    373 CCL4  -0.0812 
1917 CL      20.0487    16.8824     1.7912 Cl    373 CCL4  -0.0812 
1918 CL      17.2101    16.6511     1.2202 Cl    373 CCL4  -0.0812 
1919 CL      16.4065    18.2153   -13.8861 Cl    374 CCL4  -0.0812 
1920 C       17.1877    19.1266   -12.5762 C.3   374 CCL4   0.3246 
1921 CL      17.4417    20.8067   -13.0888 Cl    374 CCL4  -0.0812 
1922 CL      18.7593    18.3947   -12.1922 Cl    374 CCL4  -0.0812 
1923 CL      16.1490    19.0924   -11.1369 Cl    374 CCL4  -0.0812 
1924 CL      17.9986     8.8811   -14.6917 Cl    375 CCL4  -0.0812 
1925 C       19.1881     8.9276   -13.3739 C.3   375 CCL4   0.3246 
1926 CL      18.3511     9.1270   -11.8219 Cl    375 CCL4  -0.0812 
1927 CL      20.2936    10.2946   -13.6265 Cl    375 CCL4  -0.0812 
1928 CL      20.1110     7.4094   -13.3534 Cl    375 CCL4  -0.0812 
1929 CL      24.8284     3.5196   -12.4232 Cl    376 CCL4  -0.0812 
1930 C       23.1974     2.8165   -12.3879 C.3   376 CCL4   0.3246 
1931 CL      22.6629     2.6590   -10.7030 Cl    376 CCL4  -0.0812 
1932 CL      23.2271     1.2132   -13.1538 Cl    376 CCL4  -0.0812 
1933 CL      22.0734     3.8771   -13.2659 Cl    376 CCL4  -0.0812 
1934 CL      17.2572    15.3721   -10.9857 Cl    377 CCL4  -0.0812 
1935 C       17.1957    14.3453   -12.4309 C.3   377 CCL4   0.3246 
1936 CL      17.7024    12.6989   -12.0027 Cl    377 CCL4  -0.0812 
1937 CL      18.2891    14.9929   -13.6714 Cl    377 CCL4  -0.0812 
1938 CL      15.5366    14.3214   -13.0611 Cl    377 CCL4  -0.0812 
1939 CL       8.9843     7.2255    -3.0479 Cl    378 CCL4  -0.0812 
1940 C        9.0712     8.2652    -1.6110 C.3   378 CCL4   0.3246 
1941 CL       8.9976     9.9697    -2.1012 Cl    378 CCL4  -0.0812 
1942 CL       7.7103     7.9101    -0.5343 Cl    378 CCL4  -0.0812 
1943 CL      10.5883     7.9556    -0.7478 Cl    378 CCL4  -0.0812 
1944 CL      22.5460     3.0878    -2.8605 Cl    379 CCL4  -0.0812 
1945 C       23.3070     4.6862    -2.9900 C.3   379 CCL4   0.3246 
1946 CL      24.9541     4.5038    -3.6313 Cl    379 CCL4  -0.0812 
1947 CL      23.3762     5.4441    -1.3845 Cl    379 CCL4  -0.0812 
1948 CL      22.3515     5.7086    -4.0838 Cl    379 CCL4  -0.0812 
1949 CL      23.2364     2.5710     0.9529 Cl    380 CCL4  -0.0812 
1950 C       25.0106     2.5597     0.9213 C.3   380 CCL4   0.3246 
1951 CL      25.6219     4.1932     1.2637 Cl    380 CCL4  -0.0812 
1952 CL      25.5650     2.0445    -0.6866 Cl    380 CCL4  -0.0812 
1953 CL      25.6109     1.4301     2.1548 Cl    380 CCL4  -0.0812 
1954 CL      15.9258    15.7145    23.3850 Cl    381 CCL4  -0.0812 
1955 C       14.3258    16.4207    23.0711 C.3   381 CCL4   0.3246 
1956 CL      13.3079    16.2544    24.5162 Cl    381 CCL4  -0.0812 
1957 CL      13.5624    15.5741    21.7077 Cl    381 CCL4  -0.0812 
1958 CL      14.5058    18.1426    22.6743 Cl    381 CCL4  -0.0812 
1959 CL       9.3667    16.7086     7.7918 Cl    382 CCL4  -0.0812 
1960 C        9.1849    18.1514     8.8123 C.3   382 CCL4   0.3246 
1961 CL       7.5570    18.8322     8.6035 Cl    382 CCL4  -0.0812 
1962 CL      10.3912    19.3647     8.3401 Cl    382 CCL4  -0.0812 
1963 CL       9.4258    17.7033    10.5137 Cl    382 CCL4  -0.0812 
1964 CL      21.8567    10.2646     7.0621 Cl    383 CCL4  -0.0812 
1965 C       21.0062    11.6358     7.8045 C.3   383 CCL4   0.3246 
1966 CL      19.6816    11.0311     8.8220 Cl    383 CCL4  -0.0812 
1967 CL      20.3504    12.6850     6.5299 Cl    383 CCL4  -0.0812 
1968 CL      22.1405    12.5638     8.8079 Cl    383 CCL4  -0.0812 
1969 CL      17.9504     4.3796    13.2467 Cl    384 CCL4  -0.0812 
1970 C       16.7375     4.3055    11.9507 C.3   384 CCL4   0.3246 
1971 CL      16.2116     2.6253    11.7141 Cl    384 CCL4  -0.0812 
1972 CL      17.4483     4.9175    10.4459 Cl    384 CCL4  -0.0812 
1973 CL      15.3351     5.3032    12.3838 Cl    384 CCL4  -0.0812 
1974 CL      11.4986    14.6245    10.6885 Cl    385 CCL4  -0.0812 
1975 C       12.2274    13.4982     9.5268 C.3   385 CCL4   0.3246 
1976 CL      12.4835    11.9225    10.3027 Cl    385 CCL4  -0.0812 
1977 CL      13.7884    14.1415     8.9792 Cl    385 CCL4  -0.0812 
1978 CL      11.1398    13.3054     8.1375 Cl    385 CCL4  -0.0812 
1979 CL      16.1120    10.8202    10.4629 Cl    386 CCL4  -0.0812 
1980 C       15.4341     9.5724    11.5297 C.3   386 CCL4   0.3246 
1981 CL      16.7481     8.5620    12.1602 Cl    386 CCL4  -0.0812 
1982 CL      14.2919     8.5598    10.6203 Cl    386 CCL4  -0.0812 
1983 CL      14.5887    10.3453    12.8835 Cl    386 CCL4  -0.0812 
1984 CL      15.2118     3.0710    15.1906 Cl    387 CCL4  -0.0812 
1985 C       15.9194     1.9166    16.3363 C.3   387 CCL4   0.3246 
1986 CL      16.9731     0.7841    15.4631 Cl    387 CCL4  -0.0812 
1987 CL      14.6074     1.0300    17.1358 Cl    387 CCL4  -0.0812 
1988 CL      16.8768     2.7844    17.5539 Cl    387 CCL4  -0.0812 
1989 CL      11.6454     5.4468    12.3307 Cl    388 CCL4  -0.0812 
1990 C       11.5064     5.8010    14.0666 C.3   388 CCL4   0.3246 
1991 CL      12.8290     6.8808    14.5616 Cl    388 CCL4  -0.0812 
1992 CL      11.6029     4.2893    14.9944 Cl    388 CCL4  -0.0812 
1993 CL       9.9441     6.5871    14.3795 Cl    388 CCL4  -0.0812 
1994 CL      20.6632     8.3918     2.3974 Cl    389 CCL4  -0.0812 
1995 C       22.1277     7.4676     2.7844 C.3   389 CCL4   0.3246 
1996 CL      21.9774     5.8177     2.1469 Cl    389 CCL4  -0.0812 
1997 CL      22.3304     7.4143     4.5463 Cl    389 CCL4  -0.0812 
1998 CL      23.5392     8.2509     2.0472 Cl    389 CCL4  -0.0812 
1999 CL      18.7351     8.1198     5.6098 Cl    390 CCL4  -0.0812 
2000 C       18.7050     7.1455     7.0942 C.3   390 CCL4   0.3246 
2001 CL      17.5969     7.8847     8.2716 Cl    390 CCL4  -0.0812 
2002 CL      20.3409     7.0780     7.7793 Cl    390 CCL4  -0.0812 
2003 CL      18.1550     5.5001     6.7142 Cl    390 CCL4  -0.0812 
2004 CL      14.7957    12.7593     5.7726 Cl    391 CCL4  -0.0812 
2005 C       15.2431    11.0864     6.1506 C.3   391 CCL4   0.3246 
2006 CL      14.2240    10.4798     7.4686 Cl    391 CCL4  -0.0812 
2007 CL      16.9418    11.0332     6.6472 Cl    391 CCL4  -0.0812 
2008 CL      15.0163    10.0705     4.7163 Cl    391 CCL4  -0.0812 
2009 CL       8.6852    10.3023     5.6900 Cl    392 CCL4  -0.0812 
2010 C       10.3649     9.8085     5.9785 C.3   392 CCL4   0.3246 
2011 CL      10.6684     9.7147     7.7259 Cl    392 CCL4  -0.0812 
2012 CL      11.4591    10.9953     5.2462 Cl    392 CCL4  -0.0812 
2013 CL      10.6518     8.2194     5.2465 Cl    392 CCL4  -0.0812 
2014 CL      12.3324     5.1519    20.4569 Cl    393 CCL4  -0.0812 
2015 C       13.0644     3.9571    19.3691 C.3   393 CCL4   0.3246 
2016 CL      11.8198     2.8268    18.7930 Cl    393 CCL4  -0.0812 
2017 CL      14.3206     3.0608    20.2457 Cl    393 CCL4  -0.0812 
2018 CL      13.7890     4.7971    17.9846 Cl    393 CCL4  -0.0812 
2019 CL      17.2475    10.8343    15.2928 Cl    394 CCL4  -0.0812 
2020 C       15.9027    10.9231    16.4513 C.3   394 CCL4   0.3246 
2021 CL      14.8355    12.2752    16.0158 Cl    394 CCL4  -0.0812 
2022 CL      16.5476    11.1796    18.0870 Cl    394 CCL4  -0.0812 
2023 CL      14.9824     9.4044    16.4100 Cl    394 CCL4  -0.0812 
2024 CL      16.3970    15.9867    13.6984 Cl    395 CCL4  -0.0812 
2025 C       14.7243    15.5754    13.2673 C.3   395 CCL4   0.3246 
2026 CL      13.7229    15.5635    14.7326 Cl    395 CCL4  -0.0812 
2027 CL      14.6903    13.9682    12.5142 Cl    395 CCL4  -0.0812 
2028 CL      14.0898    16.7818    12.1284 Cl    395 CCL4  -0.0812 
2029 CL      19.3002     5.4180    16.8299 Cl    396 CCL4  -0.0812 
2030 C       18.2772     6.8033    16.3976 C.3   396 CCL4   0.3246 
2031 CL      18.8920     7.5475    14.9088 Cl    396 CCL4  -0.0812 
2032 CL      18.3113     7.9959    17.7126 Cl    396 CCL4  -0.0812 
2033 CL      16.6090     6.2546    16.1381 Cl    396 CCL4  -0.0812 
2034 CL      11.2608     7.4320    17.8884 Cl    397 CCL4  -0.0812 
2035 C        9.6005     6.9632    18.3134 C.3   397 CCL4   0.3246 
2036 CL       8.4514     8.0121    17.4554 Cl    397 CCL4  -0.0812 
2037 CL       9.3644     7.1331    20.0647 Cl    397 CCL4  -0.0812 
2038 CL       9.3230     5.2733    17.8447 Cl    397 CCL4  -0.0812 
2039 CL      12.8754    12.9522     2.6531 Cl    398 CCL4  -0.0812 
2040 C       12.5987    14.6126     3.2177 C.3   398 CCL4   0.3246 
2041 CL      11.9296    14.5816     4.8618 Cl    398 CCL4  -0.0812 
2042 CL      11.4447    15.4231     2.1407 Cl    398 CCL4  -0.0812 
2043 CL      14.1397    15.4952     3.2136 Cl    398 CCL4  -0.0812 
2044 CL      12.6326    17.9181     5.9125 Cl    399 CCL4  -0.0812 
2045 C       14.1071    17.9150     6.9019 C.3   399 CCL4   0.3246 
2046 CL      15.0653    19.3604     6.5256 Cl    399 CCL4  -0.0812 
2047 CL      15.0573    16.4604     6.5452 Cl    399 CCL4  -0.0812 
2048 CL      13.6746    17.9232     8.6241 Cl    399 CCL4  -0.0812 
2049 CL      19.2288    13.4321     1.6703 Cl    400 CCL4  -0.0812 
2050 C       17.9463    12.8527     2.7503 C.3   400 CCL4   0.3246 
2051 CL      18.3743    11.2403     3.3592 Cl    400 CCL4  -0.0812 
2052 CL      16.4159    12.7649     1.8545 Cl    400 CCL4  -0.0812 
2053 CL      17.7681    13.9763     4.1134 Cl    400 CCL4  -0.0812 
2054 CL      11.5158    10.4190    15.8368 Cl    401 CCL4  -0.0812 
2055 C       10.7836    10.9360    14.3059 C.3   401 CCL4   0.3246 
2056 CL       9.0251    11.0738    14.5111 Cl    401 CCL4  -0.0812 
2057 CL      11.1409     9.7357    13.0483 Cl    401 CCL4  -0.0812 
2058 CL      11.4513    12.5118    13.8313 Cl    401 CCL4  -0.0812 
2059 CL      25.8752    14.6509     4.5270 Cl    402 CCL4  -0.0812 
2060 C       25.1148    14.2433     6.0792 C.3   402 CCL4   0.3246 
2061 CL      26.2297    14.6435     7.4039 Cl    402 CCL4  -0.0812 
2062 CL      24.7452    12.5089     6.1218 Cl    402 CCL4  -0.0812 
2063 CL      23.6074    15.1664     6.2629 Cl    402 CCL4  -0.0812 
2064 CL      22.2465     8.9676    10.4831 Cl    403 CCL4  -0.0812 
2065 C       21.1533     8.5780    11.8275 C.3   403 CCL4   0.3246 
2066 CL      20.2803    10.0426    12.3301 Cl    403 CCL4  -0.0812 
2067 CL      22.1014     7.9506    13.1924 Cl    403 CCL4  -0.0812 
2068 CL      19.9876     7.3472    11.3029 Cl    403 CCL4  -0.0812 
2069 CL      22.4860     1.7811     4.4979 Cl    404 CCL4  -0.0812 
2070 C       22.9534     3.1998     5.4543 C.3   404 CCL4   0.3246 
2071 CL      23.7455     2.6808     6.9569 Cl    404 CCL4  -0.0812 
2072 CL      21.5020     4.1464     5.8420 Cl    404 CCL4  -0.0812 
2073 CL      24.0845     4.1904     4.5142 Cl    404 CCL4  -0.0812 
2074 CL      25.4502     9.1865     5.2039 Cl    405 CCL4  -0.0812 
2075 C       26.2286     7.7206     5.8333 C.3   405 CCL4   0.3246 
2076 CL      25.0938     6.8469     6.8866 Cl    405 CCL4  -0.0812 
2077 CL      27.6730     8.1698     6.7655 Cl    405 CCL4  -0.0812 
2078 CL      26.6994     6.6826     4.4729 Cl    405 CCL4  -0.0812 
2079 CL      20.7501     4.0133     9.6108 Cl    406 CCL4  -0.0812 
2080 C       22.1667     4.0248    10.6769 C.3   406 CCL4   0.3246 
2081 CL      23.2825     5.3046    10.1548 Cl    406 CCL4  -0.0812 
2082 CL      22.9822     2.4502    10.5909 Cl    406 CCL4  -0.0812 
2083 CL      21.6474     4.3312    12.3479 Cl    406 CCL4  -0.0812 
2084 CL      24.7680    11.7502     2.4358 Cl    407 CCL4  -0.0812 
2085 C       23.0402    12.1577     2.3453 C.3   407 CCL4   0.3246 
2086 CL      22.1741    11.3607     3.6723 Cl    407 CCL4  -0.0812 
2087 CL      22.3804    11.6034     0.7911 Cl    407 CCL4  -0.0812 
2088 CL      22.8349    13.9170     2.4861 Cl    407 CCL4  -0.0812 
2089 CL      19.7299    15.5546     9.2654 Cl    408 CCL4  -0.0812 
2090 C       18.0518    15.0314     9.5203 C.3   408 CCL4   0.3246 
2091 CL      17.9935    13.8764    10.8677 Cl    408 CCL4  -0.0812 
2092 CL      17.4486    14.2512     8.0459 Cl    408 CCL4  -0.0812 
2093 CL      17.0369    16.4385     9.9013 Cl    408 CCL4  -0.0812 
2094 CL      19.9974    16.4598     5.6397 Cl    409 CCL4  -0.0812 
2095 C       19.0559    17.9656     5.5801 C.3   409 CCL4   0.3246 
2096 CL      20.0530    19.2654     4.8931 Cl    409 CCL4  -0.0812 
2097 CL      18.5493    18.4165     7.2214 Cl    409 CCL4  -0.0812 
2098 CL      17.6225    17.7250     4.5647 Cl    409 CCL4  -0.0812 
@<TRIPOS>BOND
   1    1    2  1   
   2    1    4  ar  
   3    1   12  ar  
   4    2    3  2   
   5    2   20  1   
   6    4    5  1   
   7    4    6  ar  
   8    6    7  1   
   9    6    8  ar  
  10    8    9  1   
  11    8   10  ar  
  12   10   11  1   
  13   10   12  ar  
  14   12   13  1   
  15   14   15  1   
  16   14   16  ar  
  17   14   23  ar  
  18   15   31  1   
  19   16   17  1   
  20   16   18  ar  
  21   18   19  1   
  22   18   20  ar  
  23   20   21  ar  
  24   21   22  1   
  25   21   23  ar  
  26   23   24  1   
  27   25   26  1   
  28   25   27  ar  
  29   25   34  ar  
  30   26   43  1   
  31   27   28  1   
  32   27   29  ar  
  33   29   30  1   
  34   29   31  ar  
  35   31   32  ar  
  36   32   33  1   
  37   32   34  ar  
  38   34   35  1   
  39   36   37  1   
  40   36   39  ar  
  41   36   46  ar  
  42   37   38  2   
  43   37   54  1   
  44   39   40  1   
  45   39   41  ar  
  46   41   42  1   
  47   41   43  ar  
  48   43   44  ar  
  49   44   45  1   
  50   44   46  ar  
  51   46   47  1   
  52   48   49  1   
  53   48   50  ar  
  54   48   57  ar  
  55   50   51  1   
  56   50   52  ar  
  57   52   53  1   
  58   52   54  ar  
  59   54   55  ar  
  60   55   56  1   
  61   55   57  ar  
  62   57   58  1   
  63   59   60  1   
  64   60   61  1   
  65   60   62  1   
  66   60   63  1   
  67   64   65  1   
  68   65   66  1   
  69   65   67  1   
  70   65   68  1   
  71   69   70  1   
  72   70   71  1   
  73   70   72  1   
  74   70   73  1   
  75   74   75  1   
  76   75   76  1   
  77   75   77  1   
  78   75   78  1   
  79   79   80  1   
  80   80   81  1   
  81   80   82  1   
  82   80   83  1   
  83   84   85  1   
  84   85   86  1   
  85   85   87  1   
  86   85   88  1   
  87   89   90  1   
  88   90   91  1   
  89   90   92  1   
  90   90   93  1   
  91   94   95  1   
  92   95   96  1   
  93   95   97  1   
  94   95   98  1   
  95   99  100  1   
  96  100  101  1   
  97  100  102  1   
  98  100  103  1   
  99  104  105  1   
 100  105  106  1   
 101  105  107  1   
 102  105  108  1   
 103  109  110  1   
 104  110  111  1   
 105  110  112  1   
 106  110  113  1   
 107  114  115  1   
 108  115  116  1   
 109  115  117  1   
 110  115  118  1   
 111  119  120  1   
 112  120  121  1   
 113  120  122  1   
 114  120  123  1   
 115  124  125  1   
 116  125  126  1   
 117  125  127  1   
 118  125  128  1   
 119  129  130  1   
 120  130  131  1   
 121  130  132  1   
 122  130  133  1   
 123  134  135  1   
 124  135  136  1   
 125  135  137  1   
 126  135  138  1   
 127  139  140  1   
 128  140  141  1   
 129  140  142  1   
 130  140  143  1   
 131  144  145  1   
 132  145  146  1   
 133  145  147  1   
 134  145  148  1   
 135  149  150  1   
 136  150  151  1   
 137  150  152  1   
 138  150  153  1   
 139  154  155  1   
 140  155  156  1   
 141  155  157  1   
 142  155  158  1   
 143  159  160  1   
 144  160  161  1   
 145  160  162  1   
 146  160  163  1   
 147  164  165  1   
 148  165  166  1   
 149  165  167  1   
 150  165  168  1   
 151  169  170  1   
 152  170  171  1   
 153  170  172  1   
 154  170  173  1   
 155  174  175  1   
 156  175  176  1   
 157  175  177  1   
 158  175  178  1   
 159  179  180  1   
 160  180  181  1   
 161  180  182  1   
 162  180  183  1   
 163  184  185  1   
 164  185  186  1   
 165  185  187  1   
 166  185  188  1   
 167  189  190  1   
 168  190  191  1   
 169  190  192  1   
 170  190  193  1   
 171  194  195  1   
 172  195  196  1   
 173  195  197  1   
 174  195  198  1   
 175  199  200  1   
 176  200  201  1   
 177  200  202  1   
 178  200  203  1   
 179  204  205  1   
 180  205  206  1   
 181  205  207  1   
 182  205  208  1   
 183  209  210  1   
 184  210  211  1   
 185  210  212  1   
 186  210  213  1   
 187  214  215  1   
 188  215  216  1   
 189  215  217  1   
 190  215  218  1   
 191  219  220  1   
 192  220  221  1   
 193  220  222  1   
 194  220  223  1   
 195  224  225  1   
 196  225  226  1   
 197  225  227  1   
 198  225  228  1   
 199  229  230  1   
 200  230  231  1   
 201  230  232  1   
 202  230  233  1   
 203  234  235  1   
 204  235  236  1   
 205  235  237  1   
 206  235  238  1   
 207  239  240  1   
 208  240  241  1   
 209  240  242  1   
 210  240  243  1   
 211  244  245  1   
 212  245  246  1   
 213  245  247  1   
 214  245  248  1   
 215  249  250  1   
 216  250  251  1   
 217  250  252  1   
 218  250  253  1   
 219  254  255  1   
 220  255  256  1   
 221  255  257  1   
 222  255  258  1   
 223  259  260  1   
 224  260  261  1   
 225  260  262  1   
 226  260  263  1   
 227  264  265  1   
 228  265  266  1   
 229  265  267  1   
 230  265  268  1   
 231  269  270  1   
 232  270  271  1   
 233  270  272  1   
 234  270  273  1   
 235  274  275  1   
 236  275  276  1   
 237  275  277  1   
 238  275  278  1   
 239  279  280  1   
 240  280  281  1   
 241  280  282  1   
 242  280  283  1   
 243  284  285  1   
 244  285  286  1   
 245  285  287  1   
 246  285  288  1   
 247  289  290  1   
 248  290  291  1   
 249  290  292  1   
 250  290  293  1   
 251  294  295  1   
 252  295  296  1   
 253  295  297  1   
 254  295  298  1   
 255  299  300  1   
 256  300  301  1   
 257  300  302  1   
 258  300  303  1   
 259  304  305  1   
 260  305  306  1   
 261  305  307  1   
 262  305  308  1   
 263  309  310  1   
 264  310  311  1   
 265  310  312  1   
 266  310  313  1   
 267  314  315  1   
 268  315  316  1   
 269  315  317  1   
 270  315  318  1   
 271  319  320  1   
 272  320  321  1   
 273  320  322  1   
 274  320  323  1   
 275  324  325  1   
 276  325  326  1   
 277  325  327  1   
 278  325  328  1   
 279  329  330  1   
 280  330  331  1   
 281  330  332  1   
 282  330  333  1   
 283  334  335  1   
 284  335  336  1   
 285  335  337  1   
 286  335  338  1   
 287  339  340  1   
 288  340  341  1   
 289  340  342  1   
 290  340  343  1   
 291  344  345  1   
 292  345  346  1   
 293  345  347  1   
 294  345  348  1   
 295  349  350  1   
 296  350  351  1   
 297  350  352  1   
 298  350  353  1   
 299  354  355  1   
 300  355  356  1   
 301  355  357  1   
 302  355  358  1   
 303  359  360  1   
 304  360  361  1   
 305  360  362  1   
 306  360  363  1   
 307  364  365  1   
 308  365  366  1   
 309  365  367  1   
 310  365  368  1   
 311  369  370  1   
 312  370  371  1   
 313  370  372  1   
 314  370  373  1   
 315  374  375  1   
 316  375  376  1   
 317  375  377  1   
 318  375  378  1   
 319  379  380  1   
 320  380  381  1   
 321  380  382  1   
 322  380  383  1   
 323  384  385  1   
 324  385  386  1   
 325  385  387  1   
 326  385  388  1   
 327  389  390  1   
 328  390  391  1   
 329  390  392  1   
 330  390  393  1   
 331  394  395  1   
 332  395  396  1   
 333  395  397  1   
 334  395  398  1   
 335  399  400  1   
 336  400  401  1   
 337  400  402  1   
 338  400  403  1   
 339  404  405  1   
 340  405  406  1   
 341  405  407  1   
 342  405  408  1   
 343  409  410  1   
 344  410  411  1   
 345  410  412  1   
 346  410  413  1   
 347  414  415  1   
 348  415  416  1   
 349  415  417  1   
 350  415  418  1   
 351  419  420  1   
 352  420  421  1   
 353  420  422  1   
 354  420  423  1   
 355  424  425  1   
 356  425  426  1   
 357  425  427  1   
 358  425  428  1   
 359  429  430  1   
 360  430  431  1   
 361  430  432  1   
 362  430  433  1   
 363  434  435  1   
 364  435  436  1   
 365  435  437  1   
 366  435  438  1   
 367  439  440  1   
 368  440  441  1   
 369  440  442  1   
 370  440  443  1   
 371  444  445  1   
 372  445  446  1   
 373  445  447  1   
 374  445  448  1   
 375  449  450  1   
 376  450  451  1   
 377  450  452  1   
 378  450  453  1   
 379  454  455  1   
 380  455  456  1   
 381  455  457  1   
 382  455  458  1   
 383  459  460  1   
 384  460  461  1   
 385  460  462  1   
 386  460  463  1   
 387  464  465  1   
 388  465  466  1   
 389  465  467  1   
 390  465  468  1   
 391  469  470  1   
 392  470  471  1   
 393  470  472  1   
 394  470  473  1   
 395  474  475  1   
 396  475  476  1   
 397  475  477  1   
 398  475  478  1   
 399  479  480  1   
 400  480  481  1   
 401  480  482  1   
 402  480  483  1   
 403  484  485  1   
 404  485  486  1   
 405  485  487  1   
 406  485  488  1   
 407  489  490  1   
 408  490  491  1   
 409  490  492  1   
 410  490  493  1   
 411  494  495  1   
 412  495  496  1   
 413  495  497  1   
 414  495  498  1   
 415  499  500  1   
 416  500  501  1   
 417  500  502  1   
 418  500  503  1   
 419  504  505  1   
 420  505  506  1   
 421  505  507  1   
 422  505  508  1   
 423  509  510  1   
 424  510  511  1   
 425  510  512  1   
 426  510  513  1   
 427  514  515  1   
 428  515  516  1   
 429  515  517  1   
 430  515  518  1   
 431  519  520  1   
 432  520  521  1   
 433  520  522  1   
 434  520  523  1   
 435  524  525  1   
 436  525  526  1   
 437  525  527  1   
 438  525  528  1   
 439  529  530  1   
 440  530  531  1   
 441  530  532  1   
 442  530  533  1   
 443  534  535  1   
 444  535  536  1   
 445  535  537  1   
 446  535  538  1   
 447  539  540  1   
 448  540  541  1   
 449  540  542  1   
 450  540  543  1   
 451  544  545  1   
 452  545  546  1   
 453  545  547  1   
 454  545  548  1   
 455  549  550  1   
 456  550  551  1   
 457  550  552  1   
 458  550  553  1   
 459  554  555  1   
 460  555  556  1   
 461  555  557  1   
 462  555  558  1   
 463  559  560  1   
 464  560  561  1   
 465  560  562  1   
 466  560  563  1   
 467  564  565  1   
 468  565  566  1   
 469  565  567  1   
 470  565  568  1   
 471  569  570  1   
 472  570  571  1   
 473  570  572  1   
 474  570  573  1   
 475  574  575  1   
 476  575  576  1   
 477  575  577  1   
 478  575  578  1   
 479  579  580  1   
 480  580  581  1   
 481  580  582  1   
 482  580  583  1   
 483  584  585  1   
 484  585  586  1   
 485  585  587  1   
 486  585  588  1   
 487  589  590  1   
 488  590  591  1   
 489  590  592  1   
 490  590  593  1   
 491  594  595  1   
 492  595  596  1   
 493  595  597  1   
 494  595  598  1   
 495  599  600  1   
 496  600  601  1   
 497  600  602  1   
 498  600  603  1   
 499  604  605  1   
 500  605  606  1   
 501  605  607  1   
 502  605  608  1   
 503  609  610  1   
 504  610  611  1   
 505  610  612  1   
 506  610  613  1   
 507  614  615  1   
 508  615  616  1   
 509  615  617  1   
 510  615  618  1   
 511  619  620  1   
 512  620  621  1   
 513  620  622  1   
 514  620  623  1   
 515  624  625  1   
 516  625  626  1   
 517  625  627  1   
 518  625  628  1   
 519  629  630  1   
 520  630  631  1   
 521  630  632  1   
 522  630  633  1   
 523  634  635  1   
 524  635  636  1   
 525  635  637  1   
 526  635  638  1   
 527  639  640  1   
 528  640  641  1   
 529  640  642  1   
 530  640  643  1   
 531  644  645  1   
 532  645  646  1   
 533  645  647  1   
 534  645  648  1   
 535  649  650  1   
 536  650  651  1   
 537  650  652  1   
 538  650  653  1   
 539  654  655  1   
 540  655  656  1   
 541  655  657  1   
 542  655  658  1   
 543  659  660  1   
 544  660  661  1   
 545  660  662  1   
 546  660  663  1   
 547  664  665  1   
 548  665  666  1   
 549  665  667  1   
 550  665  668  1   
 551  669  670  1   
 552  670  671  1   
 553  670  672  1   
 554  670  673  1   
 555  674  675  1   
 556  675  676  1   
 557  675  677  1   
 558  675  678  1   
 559  679  680  1   
 560  680  681  1   
 561  680  682  1   
 562  680  683  1   
 563  684  685  1   
 564  685  686  1   
 565  685  687  1   
 566  685  688  1   
 567  689  690  1   
 568  690  691  1   
 569  690  692  1   
 570  690  693  1   
 571  694  695  1   
 572  695  696  1   
 573  695  697  1   
 574  695  698  1   
 575  699  700  1   
 576  700  701  1   
 577  700  702  1   
 578  700  703  1   
 579  704  705  1   
 580  705  706  1   
 581  705  707  1   
 582  705  708  1   
 583  709  710  1   
 584  710  711  1   
 585  710  712  1   
 586  710  713  1   
 587  714  715  1   
 588  715  716  1   
 589  715  717  1   
 590  715  718  1   
 591  719  720  1   
 592  720  721  1   
 593  720  722  1   
 594  720  723  1   
 595  724  725  1   
 596  725  726  1   
 597  725  727  1   
 598  725  728  1   
 599  729  730  1   
 600  730  731  1   
 601  730  732  1   
 602  730  733  1   
 603  734  735  1   
 604  735  736  1   
 605  735  737  1   
 606  735  738  1   
 607  739  740  1   
 608  740  741  1   
 609  740  742  1   
 610  740  743  1   
 611  744  745  1   
 612  745  746  1   
 613  745  747  1   
 614  745  748  1   
 615  749  750  1   
 616  750  751  1   
 617  750  752  1   
 618  750  753  1   
 619  754  755  1   
 620  755  756  1   
 621  755  757  1   
 622  755  758  1   
 623  759  760  1   
 624  760  761  1   
 625  760  762  1   
 626  760  763  1   
 627  764  765  1   
 628  765  766  1   
 629  765  767  1   
 630  765  768  1   
 631  769  770  1   
 632  770  771  1   
 633  770  772  1   
 634  770  773  1   
 635  774  775  1   
 636  775  776  1   
 637  775  777  1   
 638  775  778  1   
 639  779  780  1   
 640  780  781  1   
 641  780  782  1   
 642  780  783  1   
 643  784  785  1   
 644  785  786  1   
 645  785  787  1   
 646  785  788  1   
 647  789  790  1   
 648  790  791  1   
 649  790  792  1   
 650  790  793  1   
 651  794  795  1   
 652  795  796  1   
 653  795  797  1   
 654  795  798  1   
 655  799  800  1   
 656  800  801  1   
 657  800  802  1   
 658  800  803  1   
 659  804  805  1   
 660  805  806  1   
 661  805  807  1   
 662  805  808  1   
 663  809  810  1   
 664  810  811  1   
 665  810  812  1   
 666  810  813  1   
 667  814  815  1   
 668  815  816  1   
 669  815  817  1   
 670  815  818  1   
 671  819  820  1   
 672  820  821  1   
 673  820  822  1   
 674  820  823  1   
 675  824  825  1   
 676  825  826  1   
 677  825  827  1   
 678  825  828  1   
 679  829  830  1   
 680  830  831  1   
 681  830  832  1   
 682  830  833  1   
 683  834  835  1   
 684  835  836  1   
 685  835  837  1   
 686  835  838  1   
 687  839  840  1   
 688  840  841  1   
 689  840  842  1   
 690  840  843  1   
 691  844  845  1   
 692  845  846  1   
 693  845  847  1   
 694  845  848  1   
 695  849  850  1   
 696  850  851  1   
 697  850  852  1   
 698  850  853  1   
 699  854  855  1   
 700  855  856  1   
 701  855  857  1   
 702  855  858  1   
 703  859  860  1   
 704  860  861  1   
 705  860  862  1   
 706  860  863  1   
 707  864  865  1   
 708  865  866  1   
 709  865  867  1   
 710  865  868  1   
 711  869  870  1   
 712  870  871  1   
 713  870  872  1   
 714  870  873  1   
 715  874  875  1   
 716  875  876  1   
 717  875  877  1   
 718  875  878  1   
 719  879  880  1   
 720  880  881  1   
 721  880  882  1   
 722  880  883  1   
 723  884  885  1   
 724  885  886  1   
 725  885  887  1   
 726  885  888  1   
 727  889  890  1   
 728  890  891  1   
 729  890  892  1   
 730  890  893  1   
 731  894  895  1   
 732  895  896  1   
 733  895  897  1   
 734  895  898  1   
 735  899  900  1   
 736  900  901  1   
 737  900  902  1   
 738  900  903  1   
 739  904  905  1   
 740  905  906  1   
 741  905  907  1   
 742  905  908  1   
 743  909  910  1   
 744  910  911  1   
 745  910  912  1   
 746  910  913  1   
 747  914  915  1   
 748  915  916  1   
 749  915  917  1   
 750  915  918  1   
 751  919  920  1   
 752  920  921  1   
 753  920  922  1   
 754  920  923  1   
 755  924  925  1   
 756  925  926  1   
 757  925  927  1   
 758  925  928  1   
 759  929  930  1   
 760  930  931  1   
 761  930  932  1   
 762  930  933  1   
 763  934  935  1   
 764  935  936  1   
 765  935  937  1   
 766  935  938  1   
 767  939  940  1   
 768  940  941  1   
 769  940  942  1   
 770  940  943  1   
 771  944  945  1   
 772  945  946  1   
 773  945  947  1   
 774  945  948  1   
 775  949  950  1   
 776  950  951  1   
 777  950  952  1   
 778  950  953  1   
 779  954  955  1   
 780  955  956  1   
 781  955  957  1   
 782  955  958  1   
 783  959  960  1   
 784  960  961  1   
 785  960  962  1   
 786  960  963  1   
 787  964  965  1   
 788  965  966  1   
 789  965  967  1   
 790  965  968  1   
 791  969  970  1   
 792  970  971  1   
 793  970  972  1   
 794  970  973  1   
 795  974  975  1   
 796  975  976  1   
 797  975  977  1   
 798  975  978  1   
 799  979  980  1   
 800  980  981  1   
 801  980  982  1   
 802  980  983  1   
 803  984  985  1   
 804  985  986  1   
 805  985  987  1   
 806  985  988  1   
 807  989  990  1   
 808  990  991  1   
 809  990  992  1   
 810  990  993  1   
 811  994  995  1   
 812  995  996  1   
 813  995  997  1   
 814  995  998  1   
 815  999 1000  1   
 816 1000 1001  1   
 817 1000 1002  1   
 818 1000 1003  1   
 819 1004 1005  1   
 820 1005 1006  1   
 821 1005 1007  1   
 822 1005 1008  1   
 823 1009 1010  1   
 824 1010 1011  1   
 825 1010 1012  1   
 826 1010 1013  1   
 827 1014 1015  1   
 828 1015 1016  1   
 829 1015 1017  1   
 830 1015 1018  1   
 831 1019 1020  1   
 832 1020 1021  1   
 833 1020 1022  1   
 834 1020 1023  1   
 835 1024 1025  1   
 836 1025 1026  1   
 837 1025 1027  1   
 838 1025 1028  1   
 839 1029 1030  1   
 840 1030 1031  1   
 841 1030 1032  1   
 842 1030 1033  1   
 843 1034 1035  1   
 844 1035 1036  1   
 845 1035 1037  1   
 846 1035 1038  1   
 847 1039 1040  1   
 848 1040 1041  1   
 849 1040 1042  1   
 850 1040 1043  1   
 851 1044 1045  1   
 852 1045 1046  1   
 853 1045 1047  1   
 854 1045 1048  1   
 855 1049 1050  1   
 856 1050 1051  1   
 857 1050 1052  1   
 858 1050 1053  1   
 859 1054 1055  1   
 860 1055 1056  1   
 861 1055 1057  1   
 862 1055 1058  1   
 863 1059 1060  1   
 864 1060 1061  1   
 865 1060 1062  1   
 866 1060 1063  1   
 867 1064 1065  1   
 868 1065 1066  1   
 869 1065 1067  1   
 870 1065 1068  1   
 871 1069 1070  1   
 872 1070 1071  1   
 873 1070 1072  1   
 874 1070 1073  1   
 875 1074 1075  1   
 876 1075 1076  1   
 877 1075 1077  1   
 878 1075 1078  1   
 879 1079 1080  1   
 880 1080 1081  1   
 881 1080 1082  1   
 882 1080 1083  1   
 883 1084 1085  1   
 884 1085 1086  1   
 885 1085 1087  1   
 886 1085 1088  1   
 887 1089 1090  1   
 888 1090 1091  1   
 889 1090 1092  1   
 890 1090 1093  1   
 891 1094 1095  1   
 892 1095 1096  1   
 893 1095 1097  1   
 894 1095 1098  1   
 895 1099 1100  1   
 896 1100 1101  1   
 897 1100 1102  1   
 898 1100 1103  1   
 899 1104 1105  1   
 900 1105 1106  1   
 901 1105 1107  1   
 902 1105 1108  1   
 903 1109 1110  1   
 904 1110 1111  1   
 905 1110 1112  1   
 906 1110 1113  1   
 907 1114 1115  1   
 908 1115 1116  1   
 909 1115 1117  1   
 910 1115 1118  1   
 911 1119 1120  1   
 912 1120 1121  1   
 913 1120 1122  1   
 914 1120 1123  1   
 915 1124 1125  1   
 916 1125 1126  1   
 917 1125 1127  1   
 918 1125 1128  1   
 919 1129 1130  1   
 920 1130 1131  1   
 921 1130 1132  1   
 922 1130 1133  1   
 923 1134 1135  1   
 924 1135 1136  1   
 925 1135 1137  1   
 926 1135 1138  1   
 927 1139 1140  1   
 928 1140 1141  1   
 929 1140 1142  1   
 930 1140 1143  1   
 931 1144 1145  1   
 932 1145 1146  1   
 933 1145 1147  1   
 934 1145 1148  1   
 935 1149 1150  1   
 936 1150 1151  1   
 937 1150 1152  1   
 938 1150 1153  1   
 939 1154 1155  1   
 940 1155 1156  1   
 941 1155 1157  1   
 942 1155 1158  1   
 943 1159 1160  1   
 944 1160 1161  1   
 945 1160 1162  1   
 946 1160 1163  1   
 947 1164 1165  1   
 948 1165 1166  1   
 949 1165 1167  1   
 950 1165 1168  1   
 951 1169 1170  1   
 952 1170 1171  1   
 953 1170 1172  1   
 954 1170 1173  1   
 955 1174 1175  1   
 956 1175 1176  1   
 957 1175 1177  1   
 958 1175 1178  1   
 959 1179 1180  1   
 960 1180 1181  1   
 961 1180 1182  1   
 962 1180 1183  1   
 963 1184 1185  1   
 964 1185 1186  1   
 965 1185 1187  1   
 966 1185 1188  1   
 967 1189 1190  1   
 968 1190 1191  1   
 969 1190 1192  1   
 970 1190 1193  1   
 971 1194 1195  1   
 972 1195 1196  1   
 973 1195 1197  1   
 974 1195 1198  1   
 975 1199 1200  1   
 976 1200 1201  1   
 977 1200 1202  1   
 978 1200 1203  1   
 979 1204 1205  1   
 980 1205 1206  1   
 981 1205 1207  1   
 982 1205 1208  1   
 983 1209 1210  1   
 984 1210 1211  1   
 985 1210 1212  1   
 986 1210 1213  1   
 987 1214 1215  1   
 988 1215 1216  1   
 989 1215 1217  1   
 990 1215 1218  1   
 991 1219 1220  1   
 992 1220 1221  1   
 993 1220 1222  1   
 994 1220 1223  1   
 995 1224 1225  1   
 996 1225 1226  1   
 997 1225 1227  1   
 998 1225 1228  1   
 999 1229 1230  1   
1000 1230 1231  1   
1001 1230 1232  1   
1002 1230 1233  1   
1003 1234 1235  1   
1004 1235 1236  1   
1005 1235 1237  1   
1006 1235 1238  1   
1007 1239 1240  1   
1008 1240 1241  1   
1009 1240 1242  1   
1010 1240 1243  1   
1011 1244 1245  1   
1012 1245 1246  1   
1013 1245 1247  1   
1014 1245 1248  1   
1015 1249 1250  1   
1016 1250 1251  1   
1017 1250 1252  1   
1018 1250 1253  1   
1019 1254 1255  1   
1020 1255 1256  1   
1021 1255 1257  1   
1022 1255 1258  1   
1023 1259 1260  1   
1024 1260 1261  1   
1025 1260 1262  1   
1026 1260 1263  1   
1027 1264 1265  1   
1028 1265 1266  1   
1029 1265 1267  1   
1030 1265 1268  1   
1031 1269 1270  1   
1032 1270 1271  1   
1033 1270 1272  1   
1034 1270 1273  1   
1035 1274 1275  1   
1036 1275 1276  1   
1037 1275 1277  1   
1038 1275 1278  1   
1039 1279 1280  1   
1040 1280 1281  1   
1041 1280 1282  1   
1042 1280 1283  1   
1043 1284 1285  1   
1044 1285 1286  1   
1045 1285 1287  1   
1046 1285 1288  1   
1047 1289 1290  1   
1048 1290 1291  1   
1049 1290 1292  1   
1050 1290 1293  1   
1051 1294 1295  1   
1052 1295 1296  1   
1053 1295 1297  1   
1054 1295 1298  1   
1055 1299 1300  1   
1056 1300 1301  1   
1057 1300 1302  1   
1058 1300 1303  1   
1059 1304 1305  1   
1060 1305 1306  1   
1061 1305 1307  1   
1062 1305 1308  1   
1063 1309 1310  1   
1064 1310 1311  1   
1065 1310 1312  1   
1066 1310 1313  1   
1067 1314 1315  1   
1068 1315 1316  1   
1069 1315 1317  1   
1070 1315 1318  1   
1071 1319 1320  1   
1072 1320 1321  1   
1073 1320 1322  1   
1074 1320 1323  1   
1075 1324 1325  1   
1076 1325 1326  1   
1077 1325 1327  1   
1078 1325 1328  1   
1079 1329 1330  1   
1080 1330 1331  1   
1081 1330 1332  1   
1082 1330 1333  1   
1083 1334 1335  1   
1084 1335 1336  1   
1085 1335 1337  1   
1086 1335 1338  1   
1087 1339 1340  1   
1088 1340 1341  1   
1089 1340 1342  1   
1090 1340 1343  1   
1091 1344 1345  1   
1092 1345 1346  1   
1093 1345 1347  1   
1094 1345 1348  1   
1095 1349 1350  1   
1096 1350 1351  1   
1097 1350 1352  1   
1098 1350 1353  1   
1099 1354 1355  1   
1100 1355 1356  1   
1101 1355 1357  1   
1102 1355 1358  1   
1103 1359 1360  1   
1104 1360 1361  1   
1105 1360 1362  1   
1106 1360 1363  1   
1107 1364 1365  1   
1108 1365 1366  1   
1109 1365 1367  1   
1110 1365 1368  1   
1111 1369 1370  1   
1112 1370 1371  1   
1113 1370 1372  1   
1114 1370 1373  1   
1115 1374 1375  1   
1116 1375 1376  1   
1117 1375 1377  1   
1118 1375 1378  1   
1119 1379 1380  1   
1120 1380 1381  1   
1121 1380 1382  1   
1122 1380 1383  1   
1123 1384 1385  1   
1124 1385 1386  1   
1125 1385 1387  1   
1126 1385 1388  1   
1127 1389 1390  1   
1128 1390 1391  1   
1129 1390 1392  1   
1130 1390 1393  1   
1131 1394 1395  1   
1132 1395 1396  1   
1133 1395 1397  1   
1134 1395 1398  1   
1135 1399 1400  1   
1136 1400 1401  1   
1137 1400 1402  1   
1138 1400 1403  1   
1139 1404 1405  1   
1140 1405 1406  1   
1141 1405 1407  1   
1142 1405 1408  1   
1143 1409 1410  1   
1144 1410 1411  1   
1145 1410 1412  1   
1146 1410 1413  1   
1147 1414 1415  1   
1148 1415 1416  1   
1149 1415 1417  1   
1150 1415 1418  1   
1151 1419 1420  1   
1152 1420 1421  1   
1153 1420 1422  1   
1154 1420 1423  1   
1155 1424 1425  1   
1156 1425 1426  1   
1157 1425 1427  1   
1158 1425 1428  1   
1159 1429 1430  1   
1160 1430 1431  1   
1161 1430 1432  1   
1162 1430 1433  1   
1163 1434 1435  1   
1164 1435 1436  1   
1165 1435 1437  1   
1166 1435 1438  1   
1167 1439 1440  1   
1168 1440 1441  1   
1169 1440 1442  1   
1170 1440 1443  1   
1171 1444 1445  1   
1172 1445 1446  1   
1173 1445 1447  1   
1174 1445 1448  1   
1175 1449 1450  1   
1176 1450 1451  1   
1177 1450 1452  1   
1178 1450 1453  1   
1179 1454 1455  1   
1180 1455 1456  1   
1181 1455 1457  1   
1182 1455 1458  1   
1183 1459 1460  1   
1184 1460 1461  1   
1185 1460 1462  1   
1186 1460 1463  1   
1187 1464 1465  1   
1188 1465 1466  1   
1189 1465 1467  1   
1190 1465 1468  1   
1191 1469 1470  1   
1192 1470 1471  1   
1193 1470 1472  1   
1194 1470 1473  1   
1195 1474 1475  1   
1196 1475 1476  1   
1197 1475 1477  1   
1198 1475 1478  1   
1199 1479 1480  1   
1200 1480 1481  1   
1201 1480 1482  1   
1202 1480 1483  1   
1203 1484 1485  1   
1204 1485 1486  1   
1205 1485 1487  1   
1206 1485 1488  1   
1207 1489 1490  1   
1208 1490 1491  1   
1209 1490 1492  1   
1210 1490 1493  1   
1211 1494 1495  1   
1212 1495 1496  1   
1213 1495 1497  1   
1214 1495 1498  1   
1215 1499 1500  1   
1216 1500 1501  1   
1217 1500 1502  1   
1218 1500 1503  1   
1219 1504 1505  1   
1220 1505 1506  1   
1221 1505 1507  1   
1222 1505 1508  1   
1223 1509 1510  1   
1224 1510 1511  1   
1225 1510 1512  1   
1226 1510 1513  1   
1227 1514 1515  1   
1228 1515 1516  1   
1229 1515 1517  1   
1230 1515 1518  1   
1231 1519 1520  1   
1232 1520 1521  1   
1233 1520 1522  1   
1234 1520 1523  1   
1235 1524 1525  1   
1236 1525 1526  1   
1237 1525 1527  1   
1238 1525 1528  1   
1239 1529 1530  1   
1240 1530 1531  1   
1241 1530 1532  1   
1242 1530 1533  1   
1243 1534 1535  1   
1244 1535 1536  1   
1245 1535 1537  1   
1246 1535 1538  1   
1247 1539 1540  1   
1248 1540 1541  1   
1249 1540 1542  1   
1250 1540 1543  1   
1251 1544 1545  1   
1252 1545 1546  1   
1253 1545 1547  1   
1254 1545 1548  1   
1255 1549 1550  1   
1256 1550 1551  1   
1257 1550 1552  1   
1258 1550 1553  1   
1259 1554 1555  1   
1260 1555 1556  1   
1261 1555 1557  1   
1262 1555 1558  1   
1263 1559 1560  1   
1264 1560 1561  1   
1265 1560 1562  1   
1266 1560 1563  1   
1267 1564 1565  1   
1268 1565 1566  1   
1269 1565 1567  1   
1270 1565 1568  1   
1271 1569 1570  1   
1272 1570 1571  1   
1273 1570 1572  1   
1274 1570 1573  1   
1275 1574 1575  1   
1276 1575 1576  1   
1277 1575 1577  1   
1278 1575 1578  1   
1279 1579 1580  1   
1280 1580 1581  1   
1281 1580 1582  1   
1282 1580 1583  1   
1283 1584 1585  1   
1284 1585 1586  1   
1285 1585 1587  1   
1286 1585 1588  1   
1287 1589 1590  1   
1288 1590 1591  1   
1289 1590 1592  1   
1290 1590 1593  1   
1291 1594 1595  1   
1292 1595 1596  1   
1293 1595 1597  1   
1294 1595 1598  1   
1295 1599 1600  1   
1296 1600 1601  1   
1297 1600 1602  1   
1298 1600 1603  1   
1299 1604 1605  1   
1300 1605 1606  1   
1301 1605 1607  1   
1302 1605 1608  1   
1303 1609 1610  1   
1304 1610 1611  1   
1305 1610 1612  1   
1306 1610 1613  1   
1307 1614 1615  1   
1308 1615 1616  1   
1309 1615 1617  1   
1310 1615 1618  1   
1311 1619 1620  1   
1312 1620 1621  1   
1313 1620 1622  1   
1314 1620 1623  1   
1315 1624 1625  1   
1316 1625 1626  1   
1317 1625 1627  1   
1318 1625 1628  1   
1319 1629 1630  1   
1320 1630 1631  1   
1321 1630 1632  1   
1322 1630 1633  1   
1323 1634 1635  1   
1324 1635 1636  1   
1325 1635 1637  1   
1326 1635 1638  1   
1327 1639 1640  1   
1328 1640 1641  1   
1329 1640 1642  1   
1330 1640 1643  1   
1331 1644 1645  1   
1332 1645 1646  1   
1333 1645 1647  1   
1334 1645 1648  1   
1335 1649 1650  1   
1336 1650 1651  1   
1337 1650 1652  1   
1338 1650 1653  1   
1339 1654 1655  1   
1340 1655 1656  1   
1341 1655 1657  1   
1342 1655 1658  1   
1343 1659 1660  1   
1344 1660 1661  1   
1345 1660 1662  1   
1346 1660 1663  1   
1347 1664 1665  1   
1348 1665 1666  1   
1349 1665 1667  1   
1350 1665 1668  1   
1351 1669 1670  1   
1352 1670 1671  1   
1353 1670 1672  1   
1354 1670 1673  1   
1355 1674 1675  1   
1356 1675 1676  1   
1357 1675 1677  1   
1358 1675 1678  1   
1359 1679 1680  1   
1360 1680 1681  1   
1361 1680 1682  1   
1362 1680 1683  1   
1363 1684 1685  1   
1364 1685 1686  1   
1365 1685 1687  1   
1366 1685 1688  1   
1367 1689 1690  1   
1368 1690 1691  1   
1369 1690 1692  1   
1370 1690 1693  1   
1371 1694 1695  1   
1372 1695 1696  1   
1373 1695 1697  1   
1374 1695 1698  1   
1375 1699 1700  1   
1376 1700 1701  1   
1377 1700 1702  1   
1378 1700 1703  1   
1379 1704 1705  1   
1380 1705 1706  1   
1381 1705 1707  1   
1382 1705 1708  1   
1383 1709 1710  1   
1384 1710 1711  1   
1385 1710 1712  1   
1386 1710 1713  1   
1387 1714 1715  1   
1388 1715 1716  1   
1389 1715 1717  1   
1390 1715 1718  1   
1391 1719 1720  1   
1392 1720 1721  1   
1393 1720 1722  1   
1394 1720 1723  1   
1395 1724 1725  1   
1396 1725 1726  1   
1397 1725 1727  1   
1398 1725 1728  1   
1399 1729 1730  1   
1400 1730 1731  1   
1401 1730 1732  1   
1402 1730 1733  1   
1403 1734 1735  1   
1404 1735 1736  1   
1405 1735 1737  1   
1406 1735 1738  1   
1407 1739 1740  1   
1408 1740 1741  1   
1409 1740 1742  1   
1410 1740 1743  1   
1411 1744 1745  1   
1412 1745 1746  1   
1413 1745 1747  1   
1414 1745 1748  1   
1415 1749 1750  1   
1416 1750 1751  1   
1417 1750 1752  1   
1418 1750 1753  1   
1419 1754 1755  1   
1420 1755 1756  1   
1421 1755 1757  1   
1422 1755 1758  1   
1423 1759 1760  1   
1424 1760 1761  1   
1425 1760 1762  1   
1426 1760 1763  1   
1427 1764 1765  1   
1428 1765 1766  1   
1429 1765 1767  1   
1430 1765 1768  1   
1431 1769 1770  1   
1432 1770 1771  1   
1433 1770 1772  1   
1434 1770 1773  1   
1435 1774 1775  1   
1436 1775 1776  1   
1437 1775 1777  1   
1438 1775 1778  1   
1439 1779 1780  1   
1440 1780 1781  1   
1441 1780 1782  1   
1442 1780 1783  1   
1443 1784 1785  1   
1444 1785 1786  1   
1445 1785 1787  1   
1446 1785 1788  1   
1447 1789 1790  1   
1448 1790 1791  1   
1449 1790 1792  1   
1450 1790 1793  1   
1451 1794 1795  1   
1452 1795 1796  1   
1453 1795 1797  1   
1454 1795 1798  1   
1455 1799 1800  1   
1456 1800 1801  1   
1457 1800 1802  1   
1458 1800 1803  1   
1459 1804 1805  1   
1460 1805 1806  1   
1461 1805 1807  1   
1462 1805 1808  1   
1463 1809 1810  1   
1464 1810 1811  1   
1465 1810 1812  1   
1466 1810 1813  1   
1467 1814 1815  1   
1468 1815 1816  1   
1469 1815 1817  1   
1470 1815 1818  1   
1471 1819 1820  1   
1472 1820 1821  1   
1473 1820 1822  1   
1474 1820 1823  1   
1475 1824 1825  1   
1476 1825 1826  1   
1477 1825 1827  1   
1478 1825 1828  1   
1479 1829 1830  1   
1480 1830 1831  1   
1481 1830 1832  1   
1482 1830 1833  1   
1483 1834 1835  1   
1484 1835 1836  1   
1485 1835 1837  1   
1486 1835 1838  1   
1487 1839 1840  1   
1488 1840 1841  1   
1489 1840 1842  1   
1490 1840 1843  1   
1491 1844 1845  1   
1492 1845 1846  1   
1493 1845 1847  1   
1494 1845 1848  1   
1495 1849 1850  1   
1496 1850 1851  1   
1497 1850 1852  1   
1498 1850 1853  1   
1499 1854 1855  1   
1500 1855 1856  1   
1501 1855 1857  1   
1502 1855 1858  1   
1503 1859 1860  1   
1504 1860 1861  1   
1505 1860 1862  1   
1506 1860 1863  1   
1507 1864 1865  1   
1508 1865 1866  1   
1509 1865 1867  1   
1510 1865 1868  1   
1511 1869 1870  1   
1512 1870 1871  1   
1513 1870 1872  1   
1514 1870 1873  1   
1515 1874 1875  1   
1516 1875 1876  1   
1517 1875 1877  1   
1518 1875 1878  1   
1519 1879 1880  1   
1520 1880 1881  1   
1521 1880 1882  1   
1522 1880 1883  1   
1523 1884 1885  1   
1524 1885 1886  1   
1525 1885 1887  1   
1526 1885 1888  1   
1527 1889 1890  1   
1528 1890 1891  1   
1529 1890 1892  1   
1530 1890 1893  1   
1531 1894 1895  1   
1532 1895 1896  1   
1533 1895 1897  1   
1534 1895 1898  1   
1535 1899 1900  1   
1536 1900 1901  1   
1537 1900 1902  1   
1538 1900 1903  1   
1539 1904 1905  1   
1540 1905 1906  1   
1541 1905 1907  1   
1542 1905 1908  1   
1543 1909 1910  1   
1544 1910 1911  1   
1545 1910 1912  1   
1546 1910 1913  1   
1547 1914 1915  1   
1548 1915 1916  1   
1549 1915 1917  1   
1550 1915 1918  1   
1551 1919 1920  1   
1552 1920 1921  1   
1553 1920 1922  1   
1554 1920 1923  1   
1555 1924 1925  1   
1556 1925 1926  1   
1557 1925 1927  1   
1558 1925 1928  1   
1559 1929 1930  1   
1560 1930 1931  1   
1561 1930 1932  1   
1562 1930 1933  1   
1563 1934 1935  1   
1564 1935 1936  1   
1565 1935 1937  1   
1566 1935 1938  1   
1567 1939 1940  1   
1568 1940 1941  1   
1569 1940 1942  1   
1570 1940 1943  1   
1571 1944 1945  1   
1572 1945 1946  1   
1573 1945 1947  1   
1574 1945 1948  1   
1575 1949 1950  1   
1576 1950 1951  1   
1577 1950 1952  1   
1578 1950 1953  1   
1579 1954 1955  1   
1580 1955 1956  1   
1581 1955 1957  1   
1582 1955 1958  1   
1583 1959 1960  1   
1584 1960 1961  1   
1585 1960 1962  1   
1586 1960 1963  1   
1587 1964 1965  1   
1588 1965 1966  1   
1589 1965 1967  1   
1590 1965 1968  1   
1591 1969 1970  1   
1592 1970 1971  1   
1593 1970 1972  1   
1594 1970 1973  1   
1595 1974 1975  1   
1596 1975 1976  1   
1597 1975 1977  1   
1598 1975 1978  1   
1599 1979 1980  1   
1600 1980 1981  1   
1601 1980 1982  1   
1602 1980 1983  1   
1603 1984 1985  1   
1604 1985 1986  1   
1605 1985 1987  1   
1606 1985 1988  1   
1607 1989 1990  1   
1608 1990 1991  1   
1609 1990 1992  1   
1610 1990 1993  1   
1611 1994 1995  1   
1612 1995 1996  1   
1613 1995 1997  1   
1614 1995 1998  1   
1615 1999 2000  1   
1616 2000 2001  1   
1617 2000 2002  1   
1618 2000 2003  1   
1619 2004 2005  1   
1620 2005 2006  1   
1621 2005 2007  1   
1622 2005 2008  1   
1623 2009 2010  1   
1624 2010 2011  1   
1625 2010 2012  1   
1626 2010 2013  1   
1627 2014 2015  1   
1628 2015 2016  1   
1629 2015 2017  1   
1630 2015 2018  1   
1631 2019 2020  1   
1632 2020 2021  1   
1633 2020 2022  1   
1634 2020 2023  1   
1635 2024 2025  1   
1636 2025 2026  1   
1637 2025 2027  1   
1638 2025 2028  1   
1639 2029 2030  1   
1640 2030 2031  1   
1641 2030 2032  1   
1642 2030 2033  1   
1643 2034 2035  1   
1644 2035 2036  1   
1645 2035 2037  1   
1646 2035 2038  1   
1647 2039 2040  1   
1648 2040 2041  1   
1649 2040 2042  1   
1650 2040 2043  1   
1651 2044 2045  1   
1652 2045 2046  1   
1653 2045 2047  1   
1654 2045 2048  1   
1655 2049 2050  1   
1656 2050 2051  1   
1657 2050 2052  1   
1658 2050 2053  1   
1659 2054 2055  1   
1660 2055 2056  1   
1661 2055 2057  1   
1662 2055 2058  1   
1663 2059 2060  1   
1664 2060 2061  1   
1665 2060 2062  1   
1666 2060 2063  1   
1667 2064 2065  1   
1668 2065 2066  1   
1669 2065 2067  1   
1670 2065 2068  1   
1671 2069 2070  1   
1672 2070 2071  1   
1673 2070 2072  1   
1674 2070 2073  1   
1675 2074 2075  1   
1676 2075 2076  1   
1677 2075 2077  1   
1678 2075 2078  1   
1679 2079 2080  1   
1680 2080 2081  1   
1681 2080 2082  1   
1682 2080 2083  1   
1683 2084 2085  1   
1684 2085 2086  1   
1685 2085 2087  1   
1686 2085 2088  1   
1687 2089 2090  1   
1688 2090 2091  1   
1689 2090 2092  1   
1690 2090 2093  1   
1691 2094 2095  1   
1692 2095 2096  1   
1693 2095 2097  1   
1694 2095 2098  1   
@<TRIPOS>SUBSTRUCTURE
  1 ****   34 GROUP 4 Q1 **** 0
  2 CCL4   60 GROUP 4 Q2 **** 0
  3 CCL4   65 GROUP 4 Q2 **** 0
  4 CCL4   70 GROUP 4 Q2 **** 0
  5 CCL4   75 GROUP 4 Q2 **** 0
  6 CCL4   80 GROUP 4 Q2 **** 0
  7 CCL4   85 GROUP 4 Q2 **** 0
  8 CCL4   90 GROUP 4 Q2 **** 0
  9 CCL4   95 GROUP 4 Q2 **** 0
 10 CCL4  100 GROUP 4 Q2 **** 0
 11 CCL4  105 GROUP 4 Q2 **** 0
 12 CCL4  110 GROUP 4 Q2 **** 0
 13 CCL4  115 GROUP 4 Q2 **** 0
 14 CCL4  120 GROUP 4 Q2 **** 0
 15 CCL4  125 GROUP 4 Q2 **** 0
 16 CCL4  130 GROUP 4 Q2 **** 0
 17 CCL4  135 GROUP 4 Q2 **** 0
 18 CCL4  140 GROUP 4 Q2 **** 0
 19 CCL4  145 GROUP 4 Q2 **** 0
 20 CCL4  150 GROUP 4 Q2 **** 0
 21 CCL4  155 GROUP 4 Q2 **** 0
 22 CCL4  160 GROUP 4 Q2 **** 0
 23 CCL4  165 GROUP 4 Q2 **** 0
 24 CCL4  170 GROUP 4 Q2 **** 0
 25 CCL4  175 GROUP 4 Q2 **** 0
 26 CCL4  180 GROUP 4 Q2 **** 0
 27 CCL4  185 GROUP 4 Q2 **** 0
 28 CCL4  190 GROUP 4 Q2 **** 0
 29 CCL4  195 GROUP 4 Q2 **** 0
 30 CCL4  200 GROUP 4 Q2 **** 0
 31 CCL4  205 GROUP 4 Q2 **** 0
 32 CCL4  210 GROUP 4 Q2 **** 0
 33 CCL4  215 GROUP 4 Q2 **** 0
 34 CCL4  220 GROUP 4 Q2 **** 0
 35 CCL4  225 GROUP 4 Q2 **** 0
 36 CCL4  230 GROUP 4 Q2 **** 0
 37 CCL4  235 GROUP 4 Q2 **** 0
 38 CCL4  240 GROUP 4 Q2 **** 0
 39 CCL4  245 GROUP 4 Q2 **** 0
 40 CCL4  250 GROUP 4 Q2 **** 0
 41 CCL4  255 GROUP 4 Q2 **** 0
 42 CCL4  260 GROUP 4 Q2 **** 0
 43 CCL4  265 GROUP 4 Q2 **** 0
 44 CCL4  270 GROUP 4 Q2 **** 0
 45 CCL4  275 GROUP 4 Q2 **** 0
 46 CCL4  280 GROUP 4 Q2 **** 0
 47 CCL4  285 GROUP 4 Q2 **** 0
 48 CCL4  290 GROUP 4 Q2 **** 0
 49 CCL4  295 GROUP 4 Q2 **** 0
 50 CCL4  300 GROUP 4 Q2 **** 0
 51 CCL4  305 GROUP 4 Q2 **** 0
 52 CCL4  310 GROUP 4 Q2 **** 0
 53 CCL4  315 GROUP 4 Q2 **** 0
 54 CCL4  320 GROUP 4 Q2 **** 0
 55 CCL4  325 GROUP 4 Q2 **** 0
 56 CCL4  330 GROUP 4 Q2 **** 0
 57 CCL4  335 GROUP 4 Q2 **** 0
 58 CCL4  340 GROUP 4 Q2 **** 0
 59 CCL4  345 GROUP 4 Q2 **** 0
 60 CCL4  350 GROUP 4 Q2 **** 0
 61 CCL4  355 GROUP 4 Q2 **** 0
 62 CCL4  360 GROUP 4 Q2 **** 0
 63 CCL4  365 GROUP 4 Q2 **** 0
 64 CCL4  370 GROUP 4 Q2 **** 0
 65 CCL4  375 GROUP 4 Q2 **** 0
 66 CCL4  380 GROUP 4 Q2 **** 0
 67 CCL4  385 GROUP 4 Q2 **** 0
 68 CCL4  390 GROUP 4 Q2 **** 0
 69 CCL4  395 GROUP 4 Q2 **** 0
 70 CCL4  400 GROUP 4 Q2 **** 0
 71 CCL4  405 GROUP 4 Q2 **** 0
 72 CCL4  410 GROUP 4 Q2 **** 0
 73 CCL4  415 GROUP 4 Q2 **** 0
 74 CCL4  420 GROUP 4 Q2 **** 0
 75 CCL4  425 GROUP 4 Q2 **** 0
 76 CCL4  430 GROUP 4 Q2 **** 0
 77 CCL4  435 GROUP 4 Q2 **** 0
 78 CCL4  440 GROUP 4 Q2 **** 0
 79 CCL4  445 GROUP 4 Q2 **** 0
 80 CCL4  450 GROUP 4 Q2 **** 0
 81 CCL4  455 GROUP 4 Q2 **** 0
 82 CCL4  460 GROUP 4 Q2 **** 0
 83 CCL4  465 GROUP 4 Q2 **** 0
 84 CCL4  470 GROUP 4 Q2 **** 0
 85 CCL4  475 GROUP 4 Q2 **** 0
 86 CCL4  480 GROUP 4 Q2 **** 0
 87 CCL4  485 GROUP 4 Q2 **** 0
 88 CCL4  490 GROUP 4 Q2 **** 0
 89 CCL4  495 GROUP 4 Q2 **** 0
 90 CCL4  500 GROUP 4 Q2 **** 0
 91 CCL4  505 GROUP 4 Q2 **** 0
 92 CCL4  510 GROUP 4 Q2 **** 0
 93 CCL4  515 GROUP 4 Q2 **** 0
 94 CCL4  520 GROUP 4 Q2 **** 0
 95 CCL4  525 GROUP 4 Q2 **** 0
 96 CCL4  530 GROUP 4 Q2 **** 0
 97 CCL4  535 GROUP 4 Q2 **** 0
 98 CCL4  540 GROUP 4 Q2 **** 0
 99 CCL4  545 GROUP 4 Q2 **** 0
100 CCL4  550 GROUP 4 Q2 **** 0
101 CCL4  555 GROUP 4 Q2 **** 0
102 CCL4  560 GROUP 4 Q2 **** 0
103 CCL4  565 GROUP 4 Q2 **** 0
104 CCL4  570 GROUP 4 Q2 **** 0
105 CCL4  575 GROUP 4 Q2 **** 0
106 CCL4  580 GROUP 4 Q2 **** 0
107 CCL4  585 GROUP 4 Q2 **** 0
108 CCL4  590 GROUP 4 Q2 **** 0
109 CCL4  595 GROUP 4 Q2 **** 0
110 CCL4  600 GROUP 4 Q2 **** 0
111 CCL4  605 GROUP 4 Q2 **** 0
112 CCL4  610 GROUP 4 Q2 **** 0
113 CCL4  615 GROUP 4 Q2 **** 0
114 CCL4  620 GROUP 4 Q2 **** 0
115 CCL4  625 GROUP 4 Q2 **** 0
116 CCL4  630 GROUP 4 Q2 **** 0
117 CCL4  635 GROUP 4 Q2 **** 0
118 CCL4  640 GROUP 4 Q2 **** 0
119 CCL4  645 GROUP 4 Q2 **** 0
120 CCL4  650 GROUP 4 Q2 **** 0
121 CCL4  655 GROUP 4 Q2 **** 0
122 CCL4  660 GROUP 4 Q2 **** 0
123 CCL4  665 GROUP 4 Q2 **** 0
124 CCL4  670 GROUP 4 Q2 **** 0
125 CCL4  675 GROUP 4 Q2 **** 0
126 CCL4  680 GROUP 4 Q2 **** 0
127 CCL4  685 GROUP 4 Q2 **** 0
128 CCL4  690 GROUP 4 Q2 **** 0
129 CCL4  695 GROUP 4 Q2 **** 0
130 CCL4  700 GROUP 4 Q2 **** 0
131 CCL4  705 GROUP 4 Q2 **** 0
132 CCL4  710 GROUP 4 Q2 **** 0
133 CCL4  715 GROUP 4 Q2 **** 0
134 CCL4  720 GROUP 4 Q2 **** 0
135 CCL4  725 GROUP 4 Q2 **** 0
136 CCL4  730 GROUP 4 Q2 **** 0
137 CCL4  735 GROUP 4 Q2 **** 0
138 CCL4  740 GROUP 4 Q2 **** 0
139 CCL4  745 GROUP 4 Q2 **** 0
140 CCL4  750 GROUP 4 Q2 **** 0
141 CCL4  755 GROUP 4 Q2 **** 0
142 CCL4  760 GROUP 4 Q2 **** 0
143 CCL4  765 GROUP 4 Q2 **** 0
144 CCL4  770 GROUP 4 Q2 **** 0
145 CCL4  775 GROUP 4 Q2 **** 0
146 CCL4  780 GROUP 4 Q2 **** 0
147 CCL4  785 GROUP 4 Q2 **** 0
148 CCL4  790 GROUP 4 Q2 **** 0
149 CCL4  795 GROUP 4 Q2 **** 0
150 CCL4  800 GROUP 4 Q2 **** 0
151 CCL4  805 GROUP 4 Q2 **** 0
152 CCL4  810 GROUP 4 Q2 **** 0
153 CCL4  815 GROUP 4 Q2 **** 0
154 CCL4  820 GROUP 4 Q2 **** 0
155 CCL4  825 GROUP 4 Q2 **** 0
156 CCL4  830 GROUP 4 Q2 **** 0
157 CCL4  835 GROUP 4 Q2 **** 0
158 CCL4  840 GROUP 4 Q2 **** 0
159 CCL4  845 GROUP 4 Q2 **** 0
160 CCL4  850 GROUP 4 Q2 **** 0
161 CCL4  855 GROUP 4 Q2 **** 0
162 CCL4  860 GROUP 4 Q2 **** 0
163 CCL4  865 GROUP 4 Q2 **** 0
164 CCL4  870 GROUP 4 Q2 **** 0
165 CCL4  875 GROUP 4 Q2 **** 0
166 CCL4  880 GROUP 4 Q2 **** 0
167 CCL4  885 GROUP 4 Q2 **** 0
168 CCL4  890 GROUP 4 Q2 **** 0
169 CCL4  895 GROUP 4 Q2 **** 0
170 CCL4  900 GROUP 4 Q2 **** 0
171 CCL4  905 GROUP 4 Q2 **** 0
172 CCL4  910 GROUP 4 Q2 **** 0
173 CCL4  915 GROUP 4 Q2 **** 0
174 CCL4  920 GROUP 4 Q2 **** 0
175 CCL4  925 GROUP 4 Q2 **** 0
176 CCL4  930 GROUP 4 Q2 **** 0
177 CCL4  935 GROUP 4 Q2 **** 0
178 CCL4  940 GROUP 4 Q2 **** 0
179 CCL4  945 GROUP 4 Q2 **** 0
180 CCL4  950 GROUP 4 Q2 **** 0
181 CCL4  955 GROUP 4 Q2 **** 0
182 CCL4  960 GROUP 4 Q2 **** 0
183 CCL4  965 GROUP 4 Q2 **** 0
184 CCL4  970 GROUP 4 Q2 **** 0
185 CCL4  975 GROUP 4 Q2 **** 0
186 CCL4  980 GROUP 4 Q2 **** 0
187 CCL4  985 GROUP 4 Q2 **** 0
188 CCL4  990 GROUP 4 Q2 **** 0
189 CCL4  995 GROUP 4 Q2 **** 0
190 CCL4 1000 GROUP 4 Q2 **** 0
191 CCL4 1005 GROUP 4 Q2 **** 0
192 CCL4 1010 GROUP 4 Q2 **** 0
193 CCL4 1015 GROUP 4 Q2 **** 0
194 CCL4 1020 GROUP 4 Q2 **** 0
195 CCL4 1025 GROUP 4 Q2 **** 0
196 CCL4 1030 GROUP 4 Q2 **** 0
197 CCL4 1035 GROUP 4 Q2 **** 0
198 CCL4 1040 GROUP 4 Q2 **** 0
199 CCL4 1045 GROUP 4 Q2 **** 0
200 CCL4 1050 GROUP 4 Q2 **** 0
201 CCL4 1055 GROUP 4 Q2 **** 0
202 CCL4 1060 GROUP 4 Q2 **** 0
203 CCL4 1065 GROUP 4 Q2 **** 0
204 CCL4 1070 GROUP 4 Q2 **** 0
205 CCL4 1075 GROUP 4 Q2 **** 0
206 CCL4 1080 GROUP 4 Q2 **** 0
207 CCL4 1085 GROUP 4 Q2 **** 0
208 CCL4 1090 GROUP 4 Q2 **** 0
209 CCL4 1095 GROUP 4 Q2 **** 0
210 CCL4 1100 GROUP 4 Q2 **** 0
211 CCL4 1105 GROUP 4 Q2 **** 0
212 CCL4 1110 GROUP 4 Q2 **** 0
213 CCL4 1115 GROUP 4 Q2 **** 0
214 CCL4 1120 GROUP 4 Q2 **** 0
215 CCL4 1125 GROUP 4 Q2 **** 0
216 CCL4 1130 GROUP 4 Q2 **** 0
217 CCL4 1135 GROUP 4 Q2 **** 0
218 CCL4 1140 GROUP 4 Q2 **** 0
219 CCL4 1145 GROUP 4 Q2 **** 0
220 CCL4 1150 GROUP 4 Q2 **** 0
221 CCL4 1155 GROUP 4 Q2 **** 0
222 CCL4 1160 GROUP 4 Q2 **** 0
223 CCL4 1165 GROUP 4 Q2 **** 0
224 CCL4 1170 GROUP 4 Q2 **** 0
225 CCL4 1175 GROUP 4 Q2 **** 0
226 CCL4 1180 GROUP 4 Q2 **** 0
227 CCL4 1185 GROUP 4 Q2 **** 0
228 CCL4 1190 GROUP 4 Q2 **** 0
229 CCL4 1195 GROUP 4 Q2 **** 0
230 CCL4 1200 GROUP 4 Q2 **** 0
231 CCL4 1205 GROUP 4 Q2 **** 0
232 CCL4 1210 GROUP 4 Q2 **** 0
233 CCL4 1215 GROUP 4 Q2 **** 0
234 CCL4 1220 GROUP 4 Q2 **** 0
235 CCL4 1225 GROUP 4 Q2 **** 0
236 CCL4 1230 GROUP 4 Q2 **** 0
237 CCL4 1235 GROUP 4 Q2 **** 0
238 CCL4 1240 GROUP 4 Q2 **** 0
239 CCL4 1245 GROUP 4 Q2 **** 0
240 CCL4 1250 GROUP 4 Q2 **** 0
241 CCL4 1255 GROUP 4 Q2 **** 0
242 CCL4 1260 GROUP 4 Q2 **** 0
243 CCL4 1265 GROUP 4 Q2 **** 0
244 CCL4 1270 GROUP 4 Q2 **** 0
245 CCL4 1275 GROUP 4 Q2 **** 0
246 CCL4 1280 GROUP 4 Q2 **** 0
247 CCL4 1285 GROUP 4 Q2 **** 0
248 CCL4 1290 GROUP 4 Q2 **** 0
249 CCL4 1295 GROUP 4 Q2 **** 0
250 CCL4 1300 GROUP 4 Q2 **** 0
251 CCL4 1305 GROUP 4 Q2 **** 0
252 CCL4 1310 GROUP 4 Q2 **** 0
253 CCL4 1315 GROUP 4 Q2 **** 0
254 CCL4 1320 GROUP 4 Q2 **** 0
255 CCL4 1325 GROUP 4 Q2 **** 0
256 CCL4 1330 GROUP 4 Q2 **** 0
257 CCL4 1335 GROUP 4 Q2 **** 0
258 CCL4 1340 GROUP 4 Q2 **** 0
259 CCL4 1345 GROUP 4 Q2 **** 0
260 CCL4 1350 GROUP 4 Q2 **** 0
261 CCL4 1355 GROUP 4 Q2 **** 0
262 CCL4 1360 GROUP 4 Q2 **** 0
263 CCL4 1365 GROUP 4 Q2 **** 0
264 CCL4 1370 GROUP 4 Q2 **** 0
265 CCL4 1375 GROUP 4 Q2 **** 0
266 CCL4 1380 GROUP 4 Q2 **** 0
267 CCL4 1385 GROUP 4 Q2 **** 0
268 CCL4 1390 GROUP 4 Q2 **** 0
269 CCL4 1395 GROUP 4 Q2 **** 0
270 CCL4 1400 GROUP 4 Q2 **** 0
271 CCL4 1405 GROUP 4 Q2 **** 0
272 CCL4 1410 GROUP 4 Q2 **** 0
273 CCL4 1415 GROUP 4 Q2 **** 0
274 CCL4 1420 GROUP 4 Q2 **** 0
275 CCL4 1425 GROUP 4 Q2 **** 0
276 CCL4 1430 GROUP 4 Q2 **** 0
277 CCL4 1435 GROUP 4 Q2 **** 0
278 CCL4 1440 GROUP 4 Q2 **** 0
279 CCL4 1445 GROUP 4 Q2 **** 0
280 CCL4 1450 GROUP 4 Q2 **** 0
281 CCL4 1455 GROUP 4 Q2 **** 0
282 CCL4 1460 GROUP 4 Q2 **** 0
283 CCL4 1465 GROUP 4 Q2 **** 0
284 CCL4 1470 GROUP 4 Q2 **** 0
285 CCL4 1475 GROUP 4 Q2 **** 0
286 CCL4 1480 GROUP 4 Q2 **** 0
287 CCL4 1485 GROUP 4 Q2 **** 0
288 CCL4 1490 GROUP 4 Q2 **** 0
289 CCL4 1495 GROUP 4 Q2 **** 0
290 CCL4 1500 GROUP 4 Q2 **** 0
291 CCL4 1505 GROUP 4 Q2 **** 0
292 CCL4 1510 GROUP 4 Q2 **** 0
293 CCL4 1515 GROUP 4 Q2 **** 0
294 CCL4 1520 GROUP 4 Q2 **** 0
295 CCL4 1525 GROUP 4 Q2 **** 0
296 CCL4 1530 GROUP 4 Q2 **** 0
297 CCL4 1535 GROUP 4 Q2 **** 0
298 CCL4 1540 GROUP 4 Q2 **** 0
299 CCL4 1545 GROUP 4 Q2 **** 0
300 CCL4 1550 GROUP 4 Q2 **** 0
301 CCL4 1555 GROUP 4 Q2 **** 0
302 CCL4 1560 GROUP 4 Q2 **** 0
303 CCL4 1565 GROUP 4 Q2 **** 0
304 CCL4 1570 GROUP 4 Q2 **** 0
305 CCL4 1575 GROUP 4 Q2 **** 0
306 CCL4 1580 GROUP 4 Q2 **** 0
307 CCL4 1585 GROUP 4 Q2 **** 0
308 CCL4 1590 GROUP 4 Q2 **** 0
309 CCL4 1595 GROUP 4 Q2 **** 0
310 CCL4 1600 GROUP 4 Q2 **** 0
311 CCL4 1605 GROUP 4 Q2 **** 0
312 CCL4 1610 GROUP 4 Q2 **** 0
313 CCL4 1615 GROUP 4 Q2 **** 0
314 CCL4 1620 GROUP 4 Q2 **** 0
315 CCL4 1625 GROUP 4 Q2 **** 0
316 CCL4 1630 GROUP 4 Q2 **** 0
317 CCL4 1635 GROUP 4 Q2 **** 0
318 CCL4 1640 GROUP 4 Q2 **** 0
319 CCL4 1645 GROUP 4 Q2 **** 0
320 CCL4 1650 GROUP 4 Q2 **** 0
321 CCL4 1655 GROUP 4 Q2 **** 0
322 CCL4 1660 GROUP 4 Q2 **** 0
323 CCL4 1665 GROUP 4 Q2 **** 0
324 CCL4 1670 GROUP 4 Q2 **** 0
325 CCL4 1675 GROUP 4 Q2 **** 0
326 CCL4 1680 GROUP 4 Q2 **** 0
327 CCL4 1685 GROUP 4 Q2 **** 0
328 CCL4 1690 GROUP 4 Q2 **** 0
329 CCL4 1695 GROUP 4 Q2 **** 0
330 CCL4 1700 GROUP 4 Q2 **** 0
331 CCL4 1705 GROUP 4 Q2 **** 0
332 CCL4 1710 GROUP 4 Q2 **** 0
333 CCL4 1715 GROUP 4 Q2 **** 0
334 CCL4 1720 GROUP 4 Q2 **** 0
335 CCL4 1725 GROUP 4 Q2 **** 0
336 CCL4 1730 GROUP 4 Q2 **** 0
337 CCL4 1735 GROUP 4 Q2 **** 0
338 CCL4 1740 GROUP 4 Q2 **** 0
339 CCL4 1745 GROUP 4 Q2 **** 0
340 CCL4 1750 GROUP 4 Q2 **** 0
341 CCL4 1755 GROUP 4 Q2 **** 0
342 CCL4 1760 GROUP 4 Q2 **** 0
343 CCL4 1765 GROUP 4 Q2 **** 0
344 CCL4 1770 GROUP 4 Q2 **** 0
345 CCL4 1775 GROUP 4 Q2 **** 0
346 CCL4 1780 GROUP 4 Q2 **** 0
347 CCL4 1785 GROUP 4 Q2 **** 0
348 CCL4 1790 GROUP 4 Q2 **** 0
349 CCL4 1795 GROUP 4 Q2 **** 0
350 CCL4 1800 GROUP 4 Q2 **** 0
351 CCL4 1805 GROUP 4 Q2 **** 0
352 CCL4 1810 GROUP 4 Q2 **** 0
353 CCL4 1815 GROUP 4 Q2 **** 0
354 CCL4 1820 GROUP 4 Q2 **** 0
355 CCL4 1825 GROUP 4 Q2 **** 0
356 CCL4 1830 GROUP 4 Q2 **** 0
357 CCL4 1835 GROUP 4 Q2 **** 0
358 CCL4 1840 GROUP 4 Q2 **** 0
359 CCL4 1845 GROUP 4 Q2 **** 0
360 CCL4 1850 GROUP 4 Q2 **** 0
361 CCL4 1855 GROUP 4 Q2 **** 0
362 CCL4 1860 GROUP 4 Q2 **** 0
363 CCL4 1865 GROUP 4 Q2 **** 0
364 CCL4 1870 GROUP 4 Q2 **** 0
365 CCL4 1875 GROUP 4 Q2 **** 0
366 CCL4 1880 GROUP 4 Q2 **** 0
367 CCL4 1885 GROUP 4 Q2 **** 0
368 CCL4 1890 GROUP 4 Q2 **** 0
369 CCL4 1895 GROUP 4 Q2 **** 0
370 CCL4 1900 GROUP 4 Q2 **** 0
371 CCL4 1905 GROUP 4 Q2 **** 0
372 CCL4 1910 GROUP 4 Q2 **** 0
373 CCL4 1915 GROUP 4 Q2 **** 0
374 CCL4 1920 GROUP 4 Q2 **** 0
375 CCL4 1925 GROUP 4 Q2 **** 0
376 CCL4 1930 GROUP 4 Q2 **** 0
377 CCL4 1935 GROUP 4 Q2 **** 0
378 CCL4 1940 GROUP 4 Q2 **** 0
379 CCL4 1945 GROUP 4 Q2 **** 0
380 CCL4 1950 GROUP 4 Q2 **** 0
381 CCL4 1955 GROUP 4 Q2 **** 0
382 CCL4 1960 GROUP 4 Q2 **** 0
383 CCL4 1965 GROUP 4 Q2 **** 0
384 CCL4 1970 GROUP 4 Q2 **** 0
385 CCL4 1975 GROUP 4 Q2 **** 0
386 CCL4 1980 GROUP 4 Q2 **** 0
387 CCL4 1985 GROUP 4 Q2 **** 0
388 CCL4 1990 GROUP 4 Q2 **** 0
389 CCL4 1995 GROUP 4 Q2 **** 0
390 CCL4 2000 GROUP 4 Q2 **** 0
391 CCL4 2005 GROUP 4 Q2 **** 0
392 CCL4 2010 GROUP 4 Q2 **** 0
393 CCL4 2015 GROUP 4 Q2 **** 0
394 CCL4 2020 GROUP 4 Q2 **** 0
395 CCL4 2025 GROUP 4 Q2 **** 0
396 CCL4 2030 GROUP 4 Q2 **** 0
397 CCL4 2035 GROUP 4 Q2 **** 0
398 CCL4 2040 GROUP 4 Q2 **** 0
399 CCL4 2045 GROUP 4 Q2 **** 0
400 CCL4 2050 GROUP 4 Q2 **** 0
401 CCL4 2055 GROUP 4 Q2 **** 0
402 CCL4 2060 GROUP 4 Q2 **** 0
403 CCL4 2065 GROUP 4 Q2 **** 0
404 CCL4 2070 GROUP 4 Q2 **** 0
405 CCL4 2075 GROUP 4 Q2 **** 0
406 CCL4 2080 GROUP 4 Q2 **** 0
407 CCL4 2085 GROUP 4 Q2 **** 0
408 CCL4 2090 GROUP 4 Q2 **** 0
409 CCL4 2095 GROUP 4 Q2 **** 0

# MOE 2020.09 (io_trps.svl 2020.11)
