@<TRIPOS>MOLECULE
large_slab.bgf
 1000 0 0 0 0
SMALL
GASTEIGER

@<TRIPOS>ATOM
      1 ZN          0.0000    0.0000    0.0000 Zn      1  UNL1        0.0000
      2 ZN          0.0000    0.0000    9.4401 Zn      2  UNL2        0.0000
      3 ZN          2.2251    0.0000    3.1467 Zn      3  UNL3        0.0000
      4 ZN          2.2251    0.0000   12.5869 Zn      4  UNL4        0.0000
      5 ZN          4.4501    0.0000    6.2934 Zn      5  UNL5        0.0000
      6 ZN          5.5627    1.9270    3.1467 Zn      6  UNL6        0.0000
      7 ZN          5.5627    1.9270   12.5869 Zn      7  UNL7        0.0000
      8 ZN          1.1125    1.9270    6.2934 Zn      8  UNL8        0.0000
      9 ZN          3.3376    1.9270    0.0000 Zn      9  UNL9        0.0000
     10 ZN          3.3376    1.9270    9.4401 Zn     10  UNL10       0.0000
     11 S           4.4501    0.0000    3.9334 S.3    11  UNL11       0.0000
     12 S           4.4501    0.0000   13.3735 S.3    12  UNL12       0.0000
     13 S           0.0000    0.0000    7.0801 S.3    13  UNL13       0.0000
     14 S           2.2251    0.0000    0.7867 S.3    14  UNL14       0.0000
     15 S           2.2251    0.0000   10.2268 S.3    15  UNL15       0.0000
     16 S           1.1125    1.9270    3.9334 S.3    16  UNL16       0.0000
     17 S           1.1125    1.9270   13.3735 S.3    17  UNL17       0.0000
     18 S           3.3376    1.9270    7.0801 S.3    18  UNL18       0.0000
     19 S           5.5627    1.9270    0.7867 S.3    19  UNL19       0.0000
     20 S           5.5627    1.9270   10.2268 S.3    20  UNL20       0.0000
     21 ZN          6.6752    0.0000    0.0000 Zn     21  UNL21       0.0000
     22 ZN          6.6752    0.0000    9.4401 Zn     22  UNL22       0.0000
     23 ZN          8.9002    0.0000    3.1467 Zn     23  UNL23       0.0000
     24 ZN          8.9002    0.0000   12.5869 Zn     24  UNL24       0.0000
     25 ZN         11.1253    0.0000    6.2934 Zn     25  UNL25       0.0000
     26 ZN         12.2378    1.9270    3.1467 Zn     26  UNL26       0.0000
     27 ZN         12.2378    1.9270   12.5869 Zn     27  UNL27       0.0000
     28 ZN          7.7877    1.9270    6.2934 Zn     28  UNL28       0.0000
     29 ZN         10.0128    1.9270    0.0000 Zn     29  UNL29       0.0000
     30 ZN         10.0128    1.9270    9.4401 Zn     30  UNL30       0.0000
     31 S          11.1253    0.0000    3.9334 S.3    31  UNL31       0.0000
     32 S          11.1253    0.0000   13.3735 S.3    32  UNL32       0.0000
     33 S           6.6752    0.0000    7.0801 S.3    33  UNL33       0.0000
     34 S           8.9002    0.0000    0.7867 S.3    34  UNL34       0.0000
     35 S           8.9002    0.0000   10.2268 S.3    35  UNL35       0.0000
     36 S           7.7877    1.9270    3.9334 S.3    36  UNL36       0.0000
     37 S           7.7877    1.9270   13.3735 S.3    37  UNL37       0.0000
     38 S          10.0128    1.9270    7.0801 S.3    38  UNL38       0.0000
     39 S          12.2378    1.9270    0.7867 S.3    39  UNL39       0.0000
     40 S          12.2378    1.9270   10.2268 S.3    40  UNL40       0.0000
     41 ZN         13.3504    0.0000    0.0000 Zn     41  UNL41       0.0000
     42 ZN         13.3504    0.0000    9.4401 Zn     42  UNL42       0.0000
     43 ZN         15.5754    0.0000    3.1467 Zn     43  UNL43       0.0000
     44 ZN         15.5754    0.0000   12.5869 Zn     44  UNL44       0.0000
     45 ZN         17.8005    0.0000    6.2934 Zn     45  UNL45       0.0000
     46 ZN         18.9130    1.9270    3.1467 Zn     46  UNL46       0.0000
     47 ZN         18.9130    1.9270   12.5869 Zn     47  UNL47       0.0000
     48 ZN         14.4629    1.9270    6.2934 Zn     48  UNL48       0.0000
     49 ZN         16.6880    1.9270    0.0000 Zn     49  UNL49       0.0000
     50 ZN         16.6880    1.9270    9.4401 Zn     50  UNL50       0.0000
     51 S          17.8005    0.0000    3.9334 S.3    51  UNL51       0.0000
     52 S          17.8005    0.0000   13.3735 S.3    52  UNL52       0.0000
     53 S          13.3504    0.0000    7.0801 S.3    53  UNL53       0.0000
     54 S          15.5754    0.0000    0.7867 S.3    54  UNL54       0.0000
     55 S          15.5754    0.0000   10.2268 S.3    55  UNL55       0.0000
     56 S          14.4629    1.9270    3.9334 S.3    56  UNL56       0.0000
     57 S          14.4629    1.9270   13.3735 S.3    57  UNL57       0.0000
     58 S          16.6880    1.9270    7.0801 S.3    58  UNL58       0.0000
     59 S          18.9130    1.9270    0.7867 S.3    59  UNL59       0.0000
     60 S          18.9130    1.9270   10.2268 S.3    60  UNL60       0.0000
     61 ZN         20.0256    0.0000    0.0000 Zn     61  UNL61       0.0000
     62 ZN         20.0256    0.0000    9.4401 Zn     62  UNL62       0.0000
     63 ZN         22.2506    0.0000    3.1467 Zn     63  UNL63       0.0000
     64 ZN         22.2506    0.0000   12.5869 Zn     64  UNL64       0.0000
     65 ZN         24.4757    0.0000    6.2934 Zn     65  UNL65       0.0000
     66 ZN         25.5882    1.9270    3.1467 Zn     66  UNL66       0.0000
     67 ZN         25.5882    1.9270   12.5869 Zn     67  UNL67       0.0000
     68 ZN         21.1381    1.9270    6.2934 Zn     68  UNL68       0.0000
     69 ZN         23.3632    1.9270    0.0000 Zn     69  UNL69       0.0000
     70 ZN         23.3632    1.9270    9.4401 Zn     70  UNL70       0.0000
     71 S          24.4757    0.0000    3.9334 S.3    71  UNL71       0.0000
     72 S          24.4757    0.0000   13.3735 S.3    72  UNL72       0.0000
     73 S          20.0256    0.0000    7.0801 S.3    73  UNL73       0.0000
     74 S          22.2506    0.0000    0.7867 S.3    74  UNL74       0.0000
     75 S          22.2506    0.0000   10.2268 S.3    75  UNL75       0.0000
     76 S          21.1381    1.9270    3.9334 S.3    76  UNL76       0.0000
     77 S          21.1381    1.9270   13.3735 S.3    77  UNL77       0.0000
     78 S          23.3632    1.9270    7.0801 S.3    78  UNL78       0.0000
     79 S          25.5882    1.9270    0.7867 S.3    79  UNL79       0.0000
     80 S          25.5882    1.9270   10.2268 S.3    80  UNL80       0.0000
     81 ZN         26.7008    0.0000    0.0000 Zn     81  UNL81       0.0000
     82 ZN         26.7008    0.0000    9.4401 Zn     82  UNL82       0.0000
     83 ZN         28.9258    0.0000    3.1467 Zn     83  UNL83       0.0000
     84 ZN         28.9258    0.0000   12.5869 Zn     84  UNL84       0.0000
     85 ZN         31.1509    0.0000    6.2934 Zn     85  UNL85       0.0000
     86 ZN         32.2634    1.9270    3.1467 Zn     86  UNL86       0.0000
     87 ZN         32.2634    1.9270   12.5869 Zn     87  UNL87       0.0000
     88 ZN         27.8133    1.9270    6.2934 Zn     88  UNL88       0.0000
     89 ZN         30.0384    1.9270    0.0000 Zn     89  UNL89       0.0000
     90 ZN         30.0384    1.9270    9.4401 Zn     90  UNL90       0.0000
     91 S          31.1509    0.0000    3.9334 S.3    91  UNL91       0.0000
     92 S          31.1509    0.0000   13.3735 S.3    92  UNL92       0.0000
     93 S          26.7008    0.0000    7.0801 S.3    93  UNL93       0.0000
     94 S          28.9258    0.0000    0.7867 S.3    94  UNL94       0.0000
     95 S          28.9258    0.0000   10.2268 S.3    95  UNL95       0.0000
     96 S          27.8133    1.9270    3.9334 S.3    96  UNL96       0.0000
     97 S          27.8133    1.9270   13.3735 S.3    97  UNL97       0.0000
     98 S          30.0384    1.9270    7.0801 S.3    98  UNL98       0.0000
     99 S          32.2634    1.9270    0.7867 S.3    99  UNL99       0.0000
    100 S          32.2634    1.9270   10.2268 S.3   100  UNL100      0.0000
    101 ZN          0.0000    3.8539    0.0000 Zn    101  UNL101      0.0000
    102 ZN          0.0000    3.8539    9.4401 Zn    102  UNL102      0.0000
    103 ZN          2.2251    3.8539    3.1467 Zn    103  UNL103      0.0000
    104 ZN          2.2251    3.8539   12.5869 Zn    104  UNL104      0.0000
    105 ZN          4.4501    3.8539    6.2934 Zn    105  UNL105      0.0000
    106 ZN          5.5627    5.7809    3.1467 Zn    106  UNL106      0.0000
    107 ZN          5.5627    5.7809   12.5869 Zn    107  UNL107      0.0000
    108 ZN          1.1125    5.7809    6.2934 Zn    108  UNL108      0.0000
    109 ZN          3.3376    5.7809    0.0000 Zn    109  UNL109      0.0000
    110 ZN          3.3376    5.7809    9.4401 Zn    110  UNL110      0.0000
    111 S           4.4501    3.8539    3.9334 S.3   111  UNL111      0.0000
    112 S           4.4501    3.8539   13.3735 S.3   112  UNL112      0.0000
    113 S           0.0000    3.8539    7.0801 S.3   113  UNL113      0.0000
    114 S           2.2251    3.8539    0.7867 S.3   114  UNL114      0.0000
    115 S           2.2251    3.8539   10.2268 S.3   115  UNL115      0.0000
    116 S           1.1125    5.7809    3.9334 S.3   116  UNL116      0.0000
    117 S           1.1125    5.7809   13.3735 S.3   117  UNL117      0.0000
    118 S           3.3376    5.7809    7.0801 S.3   118  UNL118      0.0000
    119 S           5.5627    5.7809    0.7867 S.3   119  UNL119      0.0000
    120 S           5.5627    5.7809   10.2268 S.3   120  UNL120      0.0000
    121 ZN          6.6752    3.8539    0.0000 Zn    121  UNL121      0.0000
    122 ZN          6.6752    3.8539    9.4401 Zn    122  UNL122      0.0000
    123 ZN          8.9002    3.8539    3.1467 Zn    123  UNL123      0.0000
    124 ZN          8.9002    3.8539   12.5869 Zn    124  UNL124      0.0000
    125 ZN         11.1253    3.8539    6.2934 Zn    125  UNL125      0.0000
    126 ZN         12.2378    5.7809    3.1467 Zn    126  UNL126      0.0000
    127 ZN         12.2378    5.7809   12.5869 Zn    127  UNL127      0.0000
    128 ZN          7.7877    5.7809    6.2934 Zn    128  UNL128      0.0000
    129 ZN         10.0128    5.7809    0.0000 Zn    129  UNL129      0.0000
    130 ZN         10.0128    5.7809    9.4401 Zn    130  UNL130      0.0000
    131 S          11.1253    3.8539    3.9334 S.3   131  UNL131      0.0000
    132 S          11.1253    3.8539   13.3735 S.3   132  UNL132      0.0000
    133 S           6.6752    3.8539    7.0801 S.3   133  UNL133      0.0000
    134 S           8.9002    3.8539    0.7867 S.3   134  UNL134      0.0000
    135 S           8.9002    3.8539   10.2268 S.3   135  UNL135      0.0000
    136 S           7.7877    5.7809    3.9334 S.3   136  UNL136      0.0000
    137 S           7.7877    5.7809   13.3735 S.3   137  UNL137      0.0000
    138 S          10.0128    5.7809    7.0801 S.3   138  UNL138      0.0000
    139 S          12.2378    5.7809    0.7867 S.3   139  UNL139      0.0000
    140 S          12.2378    5.7809   10.2268 S.3   140  UNL140      0.0000
    141 ZN         13.3504    3.8539    0.0000 Zn    141  UNL141      0.0000
    142 ZN         13.3504    3.8539    9.4401 Zn    142  UNL142      0.0000
    143 ZN         15.5754    3.8539    3.1467 Zn    143  UNL143      0.0000
    144 ZN         15.5754    3.8539   12.5869 Zn    144  UNL144      0.0000
    145 ZN         17.8005    3.8539    6.2934 Zn    145  UNL145      0.0000
    146 ZN         18.9130    5.7809    3.1467 Zn    146  UNL146      0.0000
    147 ZN         18.9130    5.7809   12.5869 Zn    147  UNL147      0.0000
    148 ZN         14.4629    5.7809    6.2934 Zn    148  UNL148      0.0000
    149 ZN         16.6880    5.7809    0.0000 Zn    149  UNL149      0.0000
    150 ZN         16.6880    5.7809    9.4401 Zn    150  UNL150      0.0000
    151 S          17.8005    3.8539    3.9334 S.3   151  UNL151      0.0000
    152 S          17.8005    3.8539   13.3735 S.3   152  UNL152      0.0000
    153 S          13.3504    3.8539    7.0801 S.3   153  UNL153      0.0000
    154 S          15.5754    3.8539    0.7867 S.3   154  UNL154      0.0000
    155 S          15.5754    3.8539   10.2268 S.3   155  UNL155      0.0000
    156 S          14.4629    5.7809    3.9334 S.3   156  UNL156      0.0000
    157 S          14.4629    5.7809   13.3735 S.3   157  UNL157      0.0000
    158 S          16.6880    5.7809    7.0801 S.3   158  UNL158      0.0000
    159 S          18.9130    5.7809    0.7867 S.3   159  UNL159      0.0000
    160 S          18.9130    5.7809   10.2268 S.3   160  UNL160      0.0000
    161 ZN         20.0256    3.8539    0.0000 Zn    161  UNL161      0.0000
    162 ZN         20.0256    3.8539    9.4401 Zn    162  UNL162      0.0000
    163 ZN         22.2506    3.8539    3.1467 Zn    163  UNL163      0.0000
    164 ZN         22.2506    3.8539   12.5869 Zn    164  UNL164      0.0000
    165 ZN         24.4757    3.8539    6.2934 Zn    165  UNL165      0.0000
    166 ZN         25.5882    5.7809    3.1467 Zn    166  UNL166      0.0000
    167 ZN         25.5882    5.7809   12.5869 Zn    167  UNL167      0.0000
    168 ZN         21.1381    5.7809    6.2934 Zn    168  UNL168      0.0000
    169 ZN         23.3632    5.7809    0.0000 Zn    169  UNL169      0.0000
    170 ZN         23.3632    5.7809    9.4401 Zn    170  UNL170      0.0000
    171 S          24.4757    3.8539    3.9334 S.3   171  UNL171      0.0000
    172 S          24.4757    3.8539   13.3735 S.3   172  UNL172      0.0000
    173 S          20.0256    3.8539    7.0801 S.3   173  UNL173      0.0000
    174 S          22.2506    3.8539    0.7867 S.3   174  UNL174      0.0000
    175 S          22.2506    3.8539   10.2268 S.3   175  UNL175      0.0000
    176 S          21.1381    5.7809    3.9334 S.3   176  UNL176      0.0000
    177 S          21.1381    5.7809   13.3735 S.3   177  UNL177      0.0000
    178 S          23.3632    5.7809    7.0801 S.3   178  UNL178      0.0000
    179 S          25.5882    5.7809    0.7867 S.3   179  UNL179      0.0000
    180 S          25.5882    5.7809   10.2268 S.3   180  UNL180      0.0000
    181 ZN         26.7008    3.8539    0.0000 Zn    181  UNL181      0.0000
    182 ZN         26.7008    3.8539    9.4401 Zn    182  UNL182      0.0000
    183 ZN         28.9258    3.8539    3.1467 Zn    183  UNL183      0.0000
    184 ZN         28.9258    3.8539   12.5869 Zn    184  UNL184      0.0000
    185 ZN         31.1509    3.8539    6.2934 Zn    185  UNL185      0.0000
    186 ZN         32.2634    5.7809    3.1467 Zn    186  UNL186      0.0000
    187 ZN         32.2634    5.7809   12.5869 Zn    187  UNL187      0.0000
    188 ZN         27.8133    5.7809    6.2934 Zn    188  UNL188      0.0000
    189 ZN         30.0384    5.7809    0.0000 Zn    189  UNL189      0.0000
    190 ZN         30.0384    5.7809    9.4401 Zn    190  UNL190      0.0000
    191 S          31.1509    3.8539    3.9334 S.3   191  UNL191      0.0000
    192 S          31.1509    3.8539   13.3735 S.3   192  UNL192      0.0000
    193 S          26.7008    3.8539    7.0801 S.3   193  UNL193      0.0000
    194 S          28.9258    3.8539    0.7867 S.3   194  UNL194      0.0000
    195 S          28.9258    3.8539   10.2268 S.3   195  UNL195      0.0000
    196 S          27.8133    5.7809    3.9334 S.3   196  UNL196      0.0000
    197 S          27.8133    5.7809   13.3735 S.3   197  UNL197      0.0000
    198 S          30.0384    5.7809    7.0801 S.3   198  UNL198      0.0000
    199 S          32.2634    5.7809    0.7867 S.3   199  UNL199      0.0000
    200 S          32.2634    5.7809   10.2268 S.3   200  UNL200      0.0000
    201 ZN          0.0000    7.7078    0.0000 Zn    201  UNL201      0.0000
    202 ZN          0.0000    7.7078    9.4401 Zn    202  UNL202      0.0000
    203 ZN          2.2251    7.7078    3.1467 Zn    203  UNL203      0.0000
    204 ZN          2.2251    7.7078   12.5869 Zn    204  UNL204      0.0000
    205 ZN          4.4501    7.7078    6.2934 Zn    205  UNL205      0.0000
    206 ZN          5.5627    9.6348    3.1467 Zn    206  UNL206      0.0000
    207 ZN          5.5627    9.6348   12.5869 Zn    207  UNL207      0.0000
    208 ZN          1.1125    9.6348    6.2934 Zn    208  UNL208      0.0000
    209 ZN          3.3376    9.6348    0.0000 Zn    209  UNL209      0.0000
    210 ZN          3.3376    9.6348    9.4401 Zn    210  UNL210      0.0000
    211 S           4.4501    7.7078    3.9334 S.3   211  UNL211      0.0000
    212 S           4.4501    7.7078   13.3735 S.3   212  UNL212      0.0000
    213 S           0.0000    7.7078    7.0801 S.3   213  UNL213      0.0000
    214 S           2.2251    7.7078    0.7867 S.3   214  UNL214      0.0000
    215 S           2.2251    7.7078   10.2268 S.3   215  UNL215      0.0000
    216 S           1.1125    9.6348    3.9334 S.3   216  UNL216      0.0000
    217 S           1.1125    9.6348   13.3735 S.3   217  UNL217      0.0000
    218 S           3.3376    9.6348    7.0801 S.3   218  UNL218      0.0000
    219 S           5.5627    9.6348    0.7867 S.3   219  UNL219      0.0000
    220 S           5.5627    9.6348   10.2268 S.3   220  UNL220      0.0000
    221 ZN          6.6752    7.7078    0.0000 Zn    221  UNL221      0.0000
    222 ZN          6.6752    7.7078    9.4401 Zn    222  UNL222      0.0000
    223 ZN          8.9002    7.7078    3.1467 Zn    223  UNL223      0.0000
    224 ZN          8.9002    7.7078   12.5869 Zn    224  UNL224      0.0000
    225 ZN         11.1253    7.7078    6.2934 Zn    225  UNL225      0.0000
    226 ZN         12.2378    9.6348    3.1467 Zn    226  UNL226      0.0000
    227 ZN         12.2378    9.6348   12.5869 Zn    227  UNL227      0.0000
    228 ZN          7.7877    9.6348    6.2934 Zn    228  UNL228      0.0000
    229 ZN         10.0128    9.6348    0.0000 Zn    229  UNL229      0.0000
    230 ZN         10.0128    9.6348    9.4401 Zn    230  UNL230      0.0000
    231 S          11.1253    7.7078    3.9334 S.3   231  UNL231      0.0000
    232 S          11.1253    7.7078   13.3735 S.3   232  UNL232      0.0000
    233 S           6.6752    7.7078    7.0801 S.3   233  UNL233      0.0000
    234 S           8.9002    7.7078    0.7867 S.3   234  UNL234      0.0000
    235 S           8.9002    7.7078   10.2268 S.3   235  UNL235      0.0000
    236 S           7.7877    9.6348    3.9334 S.3   236  UNL236      0.0000
    237 S           7.7877    9.6348   13.3735 S.3   237  UNL237      0.0000
    238 S          10.0128    9.6348    7.0801 S.3   238  UNL238      0.0000
    239 S          12.2378    9.6348    0.7867 S.3   239  UNL239      0.0000
    240 S          12.2378    9.6348   10.2268 S.3   240  UNL240      0.0000
    241 ZN         13.3504    7.7078    0.0000 Zn    241  UNL241      0.0000
    242 ZN         13.3504    7.7078    9.4401 Zn    242  UNL242      0.0000
    243 ZN         15.5754    7.7078    3.1467 Zn    243  UNL243      0.0000
    244 ZN         15.5754    7.7078   12.5869 Zn    244  UNL244      0.0000
    245 ZN         17.8005    7.7078    6.2934 Zn    245  UNL245      0.0000
    246 ZN         18.9130    9.6348    3.1467 Zn    246  UNL246      0.0000
    247 ZN         18.9130    9.6348   12.5869 Zn    247  UNL247      0.0000
    248 ZN         14.4629    9.6348    6.2934 Zn    248  UNL248      0.0000
    249 ZN         16.6880    9.6348    0.0000 Zn    249  UNL249      0.0000
    250 ZN         16.6880    9.6348    9.4401 Zn    250  UNL250      0.0000
    251 S          17.8005    7.7078    3.9334 S.3   251  UNL251      0.0000
    252 S          17.8005    7.7078   13.3735 S.3   252  UNL252      0.0000
    253 S          13.3504    7.7078    7.0801 S.3   253  UNL253      0.0000
    254 S          15.5754    7.7078    0.7867 S.3   254  UNL254      0.0000
    255 S          15.5754    7.7078   10.2268 S.3   255  UNL255      0.0000
    256 S          14.4629    9.6348    3.9334 S.3   256  UNL256      0.0000
    257 S          14.4629    9.6348   13.3735 S.3   257  UNL257      0.0000
    258 S          16.6880    9.6348    7.0801 S.3   258  UNL258      0.0000
    259 S          18.9130    9.6348    0.7867 S.3   259  UNL259      0.0000
    260 S          18.9130    9.6348   10.2268 S.3   260  UNL260      0.0000
    261 ZN         20.0256    7.7078    0.0000 Zn    261  UNL261      0.0000
    262 ZN         20.0256    7.7078    9.4401 Zn    262  UNL262      0.0000
    263 ZN         22.2506    7.7078    3.1467 Zn    263  UNL263      0.0000
    264 ZN         22.2506    7.7078   12.5869 Zn    264  UNL264      0.0000
    265 ZN         24.4757    7.7078    6.2934 Zn    265  UNL265      0.0000
    266 ZN         25.5882    9.6348    3.1467 Zn    266  UNL266      0.0000
    267 ZN         25.5882    9.6348   12.5869 Zn    267  UNL267      0.0000
    268 ZN         21.1381    9.6348    6.2934 Zn    268  UNL268      0.0000
    269 ZN         23.3632    9.6348    0.0000 Zn    269  UNL269      0.0000
    270 ZN         23.3632    9.6348    9.4401 Zn    270  UNL270      0.0000
    271 S          24.4757    7.7078    3.9334 S.3   271  UNL271      0.0000
    272 S          24.4757    7.7078   13.3735 S.3   272  UNL272      0.0000
    273 S          20.0256    7.7078    7.0801 S.3   273  UNL273      0.0000
    274 S          22.2506    7.7078    0.7867 S.3   274  UNL274      0.0000
    275 S          22.2506    7.7078   10.2268 S.3   275  UNL275      0.0000
    276 S          21.1381    9.6348    3.9334 S.3   276  UNL276      0.0000
    277 S          21.1381    9.6348   13.3735 S.3   277  UNL277      0.0000
    278 S          23.3632    9.6348    7.0801 S.3   278  UNL278      0.0000
    279 S          25.5882    9.6348    0.7867 S.3   279  UNL279      0.0000
    280 S          25.5882    9.6348   10.2268 S.3   280  UNL280      0.0000
    281 ZN         26.7008    7.7078    0.0000 Zn    281  UNL281      0.0000
    282 ZN         26.7008    7.7078    9.4401 Zn    282  UNL282      0.0000
    283 ZN         28.9258    7.7078    3.1467 Zn    283  UNL283      0.0000
    284 ZN         28.9258    7.7078   12.5869 Zn    284  UNL284      0.0000
    285 ZN         31.1509    7.7078    6.2934 Zn    285  UNL285      0.0000
    286 ZN         32.2634    9.6348    3.1467 Zn    286  UNL286      0.0000
    287 ZN         32.2634    9.6348   12.5869 Zn    287  UNL287      0.0000
    288 ZN         27.8133    9.6348    6.2934 Zn    288  UNL288      0.0000
    289 ZN         30.0384    9.6348    0.0000 Zn    289  UNL289      0.0000
    290 ZN         30.0384    9.6348    9.4401 Zn    290  UNL290      0.0000
    291 S          31.1509    7.7078    3.9334 S.3   291  UNL291      0.0000
    292 S          31.1509    7.7078   13.3735 S.3   292  UNL292      0.0000
    293 S          26.7008    7.7078    7.0801 S.3   293  UNL293      0.0000
    294 S          28.9258    7.7078    0.7867 S.3   294  UNL294      0.0000
    295 S          28.9258    7.7078   10.2268 S.3   295  UNL295      0.0000
    296 S          27.8133    9.6348    3.9334 S.3   296  UNL296      0.0000
    297 S          27.8133    9.6348   13.3735 S.3   297  UNL297      0.0000
    298 S          30.0384    9.6348    7.0801 S.3   298  UNL298      0.0000
    299 S          32.2634    9.6348    0.7867 S.3   299  UNL299      0.0000
    300 S          32.2634    9.6348   10.2268 S.3   300  UNL300      0.0000
    301 ZN          0.0000   11.5618    0.0000 Zn    301  UNL301      0.0000
    302 ZN          0.0000   11.5618    9.4401 Zn    302  UNL302      0.0000
    303 ZN          2.2251   11.5618    3.1467 Zn    303  UNL303      0.0000
    304 ZN          2.2251   11.5618   12.5869 Zn    304  UNL304      0.0000
    305 ZN          4.4501   11.5618    6.2934 Zn    305  UNL305      0.0000
    306 ZN          5.5627   13.4887    3.1467 Zn    306  UNL306      0.0000
    307 ZN          5.5627   13.4887   12.5869 Zn    307  UNL307      0.0000
    308 ZN          1.1125   13.4887    6.2934 Zn    308  UNL308      0.0000
    309 ZN          3.3376   13.4887    0.0000 Zn    309  UNL309      0.0000
    310 ZN          3.3376   13.4887    9.4401 Zn    310  UNL310      0.0000
    311 S           4.4501   11.5618    3.9334 S.3   311  UNL311      0.0000
    312 S           4.4501   11.5618   13.3735 S.3   312  UNL312      0.0000
    313 S           0.0000   11.5618    7.0801 S.3   313  UNL313      0.0000
    314 S           2.2251   11.5618    0.7867 S.3   314  UNL314      0.0000
    315 S           2.2251   11.5618   10.2268 S.3   315  UNL315      0.0000
    316 S           1.1125   13.4887    3.9334 S.3   316  UNL316      0.0000
    317 S           1.1125   13.4887   13.3735 S.3   317  UNL317      0.0000
    318 S           3.3376   13.4887    7.0801 S.3   318  UNL318      0.0000
    319 S           5.5627   13.4887    0.7867 S.3   319  UNL319      0.0000
    320 S           5.5627   13.4887   10.2268 S.3   320  UNL320      0.0000
    321 ZN          6.6752   11.5618    0.0000 Zn    321  UNL321      0.0000
    322 ZN          6.6752   11.5618    9.4401 Zn    322  UNL322      0.0000
    323 ZN          8.9002   11.5618    3.1467 Zn    323  UNL323      0.0000
    324 ZN          8.9002   11.5618   12.5869 Zn    324  UNL324      0.0000
    325 ZN         11.1253   11.5618    6.2934 Zn    325  UNL325      0.0000
    326 ZN         12.2378   13.4887    3.1467 Zn    326  UNL326      0.0000
    327 ZN         12.2378   13.4887   12.5869 Zn    327  UNL327      0.0000
    328 ZN          7.7877   13.4887    6.2934 Zn    328  UNL328      0.0000
    329 ZN         10.0128   13.4887    0.0000 Zn    329  UNL329      0.0000
    330 ZN         10.0128   13.4887    9.4401 Zn    330  UNL330      0.0000
    331 S          11.1253   11.5618    3.9334 S.3   331  UNL331      0.0000
    332 S          11.1253   11.5618   13.3735 S.3   332  UNL332      0.0000
    333 S           6.6752   11.5618    7.0801 S.3   333  UNL333      0.0000
    334 S           8.9002   11.5618    0.7867 S.3   334  UNL334      0.0000
    335 S           8.9002   11.5618   10.2268 S.3   335  UNL335      0.0000
    336 S           7.7877   13.4887    3.9334 S.3   336  UNL336      0.0000
    337 S           7.7877   13.4887   13.3735 S.3   337  UNL337      0.0000
    338 S          10.0128   13.4887    7.0801 S.3   338  UNL338      0.0000
    339 S          12.2378   13.4887    0.7867 S.3   339  UNL339      0.0000
    340 S          12.2378   13.4887   10.2268 S.3   340  UNL340      0.0000
    341 ZN         13.3504   11.5618    0.0000 Zn    341  UNL341      0.0000
    342 ZN         13.3504   11.5618    9.4401 Zn    342  UNL342      0.0000
    343 ZN         15.5754   11.5618    3.1467 Zn    343  UNL343      0.0000
    344 ZN         15.5754   11.5618   12.5869 Zn    344  UNL344      0.0000
    345 ZN         17.8005   11.5618    6.2934 Zn    345  UNL345      0.0000
    346 ZN         18.9130   13.4887    3.1467 Zn    346  UNL346      0.0000
    347 ZN         18.9130   13.4887   12.5869 Zn    347  UNL347      0.0000
    348 ZN         14.4629   13.4887    6.2934 Zn    348  UNL348      0.0000
    349 ZN         16.6880   13.4887    0.0000 Zn    349  UNL349      0.0000
    350 ZN         16.6880   13.4887    9.4401 Zn    350  UNL350      0.0000
    351 S          17.8005   11.5618    3.9334 S.3   351  UNL351      0.0000
    352 S          17.8005   11.5618   13.3735 S.3   352  UNL352      0.0000
    353 S          13.3504   11.5618    7.0801 S.3   353  UNL353      0.0000
    354 S          15.5754   11.5618    0.7867 S.3   354  UNL354      0.0000
    355 S          15.5754   11.5618   10.2268 S.3   355  UNL355      0.0000
    356 S          14.4629   13.4887    3.9334 S.3   356  UNL356      0.0000
    357 S          14.4629   13.4887   13.3735 S.3   357  UNL357      0.0000
    358 S          16.6880   13.4887    7.0801 S.3   358  UNL358      0.0000
    359 S          18.9130   13.4887    0.7867 S.3   359  UNL359      0.0000
    360 S          18.9130   13.4887   10.2268 S.3   360  UNL360      0.0000
    361 ZN         20.0256   11.5618    0.0000 Zn    361  UNL361      0.0000
    362 ZN         20.0256   11.5618    9.4401 Zn    362  UNL362      0.0000
    363 ZN         22.2506   11.5618    3.1467 Zn    363  UNL363      0.0000
    364 ZN         22.2506   11.5618   12.5869 Zn    364  UNL364      0.0000
    365 ZN         24.4757   11.5618    6.2934 Zn    365  UNL365      0.0000
    366 ZN         25.5882   13.4887    3.1467 Zn    366  UNL366      0.0000
    367 ZN         25.5882   13.4887   12.5869 Zn    367  UNL367      0.0000
    368 ZN         21.1381   13.4887    6.2934 Zn    368  UNL368      0.0000
    369 ZN         23.3632   13.4887    0.0000 Zn    369  UNL369      0.0000
    370 ZN         23.3632   13.4887    9.4401 Zn    370  UNL370      0.0000
    371 S          24.4757   11.5618    3.9334 S.3   371  UNL371      0.0000
    372 S          24.4757   11.5618   13.3735 S.3   372  UNL372      0.0000
    373 S          20.0256   11.5618    7.0801 S.3   373  UNL373      0.0000
    374 S          22.2506   11.5618    0.7867 S.3   374  UNL374      0.0000
    375 S          22.2506   11.5618   10.2268 S.3   375  UNL375      0.0000
    376 S          21.1381   13.4887    3.9334 S.3   376  UNL376      0.0000
    377 S          21.1381   13.4887   13.3735 S.3   377  UNL377      0.0000
    378 S          23.3632   13.4887    7.0801 S.3   378  UNL378      0.0000
    379 S          25.5882   13.4887    0.7867 S.3   379  UNL379      0.0000
    380 S          25.5882   13.4887   10.2268 S.3   380  UNL380      0.0000
    381 ZN         26.7008   11.5618    0.0000 Zn    381  UNL381      0.0000
    382 ZN         26.7008   11.5618    9.4401 Zn    382  UNL382      0.0000
    383 ZN         28.9258   11.5618    3.1467 Zn    383  UNL383      0.0000
    384 ZN         28.9258   11.5618   12.5869 Zn    384  UNL384      0.0000
    385 ZN         31.1509   11.5618    6.2934 Zn    385  UNL385      0.0000
    386 ZN         32.2634   13.4887    3.1467 Zn    386  UNL386      0.0000
    387 ZN         32.2634   13.4887   12.5869 Zn    387  UNL387      0.0000
    388 ZN         27.8133   13.4887    6.2934 Zn    388  UNL388      0.0000
    389 ZN         30.0384   13.4887    0.0000 Zn    389  UNL389      0.0000
    390 ZN         30.0384   13.4887    9.4401 Zn    390  UNL390      0.0000
    391 S          31.1509   11.5618    3.9334 S.3   391  UNL391      0.0000
    392 S          31.1509   11.5618   13.3735 S.3   392  UNL392      0.0000
    393 S          26.7008   11.5618    7.0801 S.3   393  UNL393      0.0000
    394 S          28.9258   11.5618    0.7867 S.3   394  UNL394      0.0000
    395 S          28.9258   11.5618   10.2268 S.3   395  UNL395      0.0000
    396 S          27.8133   13.4887    3.9334 S.3   396  UNL396      0.0000
    397 S          27.8133   13.4887   13.3735 S.3   397  UNL397      0.0000
    398 S          30.0384   13.4887    7.0801 S.3   398  UNL398      0.0000
    399 S          32.2634   13.4887    0.7867 S.3   399  UNL399      0.0000
    400 S          32.2634   13.4887   10.2268 S.3   400  UNL400      0.0000
    401 ZN          0.0000   15.4157    0.0000 Zn    401  UNL401      0.0000
    402 ZN          0.0000   15.4157    9.4401 Zn    402  UNL402      0.0000
    403 ZN          2.2251   15.4157    3.1467 Zn    403  UNL403      0.0000
    404 ZN          2.2251   15.4157   12.5869 Zn    404  UNL404      0.0000
    405 ZN          4.4501   15.4157    6.2934 Zn    405  UNL405      0.0000
    406 ZN          5.5627   17.3426    3.1467 Zn    406  UNL406      0.0000
    407 ZN          5.5627   17.3426   12.5869 Zn    407  UNL407      0.0000
    408 ZN          1.1125   17.3426    6.2934 Zn    408  UNL408      0.0000
    409 ZN          3.3376   17.3426    0.0000 Zn    409  UNL409      0.0000
    410 ZN          3.3376   17.3426    9.4401 Zn    410  UNL410      0.0000
    411 S           4.4501   15.4157    3.9334 S.3   411  UNL411      0.0000
    412 S           4.4501   15.4157   13.3735 S.3   412  UNL412      0.0000
    413 S           0.0000   15.4157    7.0801 S.3   413  UNL413      0.0000
    414 S           2.2251   15.4157    0.7867 S.3   414  UNL414      0.0000
    415 S           2.2251   15.4157   10.2268 S.3   415  UNL415      0.0000
    416 S           1.1125   17.3426    3.9334 S.3   416  UNL416      0.0000
    417 S           1.1125   17.3426   13.3735 S.3   417  UNL417      0.0000
    418 S           3.3376   17.3426    7.0801 S.3   418  UNL418      0.0000
    419 S           5.5627   17.3426    0.7867 S.3   419  UNL419      0.0000
    420 S           5.5627   17.3426   10.2268 S.3   420  UNL420      0.0000
    421 ZN          6.6752   15.4157    0.0000 Zn    421  UNL421      0.0000
    422 ZN          6.6752   15.4157    9.4401 Zn    422  UNL422      0.0000
    423 ZN          8.9002   15.4157    3.1467 Zn    423  UNL423      0.0000
    424 ZN          8.9002   15.4157   12.5869 Zn    424  UNL424      0.0000
    425 ZN         11.1253   15.4157    6.2934 Zn    425  UNL425      0.0000
    426 ZN         12.2378   17.3426    3.1467 Zn    426  UNL426      0.0000
    427 ZN         12.2378   17.3426   12.5869 Zn    427  UNL427      0.0000
    428 ZN          7.7877   17.3426    6.2934 Zn    428  UNL428      0.0000
    429 ZN         10.0128   17.3426    0.0000 Zn    429  UNL429      0.0000
    430 ZN         10.0128   17.3426    9.4401 Zn    430  UNL430      0.0000
    431 S          11.1253   15.4157    3.9334 S.3   431  UNL431      0.0000
    432 S          11.1253   15.4157   13.3735 S.3   432  UNL432      0.0000
    433 S           6.6752   15.4157    7.0801 S.3   433  UNL433      0.0000
    434 S           8.9002   15.4157    0.7867 S.3   434  UNL434      0.0000
    435 S           8.9002   15.4157   10.2268 S.3   435  UNL435      0.0000
    436 S           7.7877   17.3426    3.9334 S.3   436  UNL436      0.0000
    437 S           7.7877   17.3426   13.3735 S.3   437  UNL437      0.0000
    438 S          10.0128   17.3426    7.0801 S.3   438  UNL438      0.0000
    439 S          12.2378   17.3426    0.7867 S.3   439  UNL439      0.0000
    440 S          12.2378   17.3426   10.2268 S.3   440  UNL440      0.0000
    441 ZN         13.3504   15.4157    0.0000 Zn    441  UNL441      0.0000
    442 ZN         13.3504   15.4157    9.4401 Zn    442  UNL442      0.0000
    443 ZN         15.5754   15.4157    3.1467 Zn    443  UNL443      0.0000
    444 ZN         15.5754   15.4157   12.5869 Zn    444  UNL444      0.0000
    445 ZN         17.8005   15.4157    6.2934 Zn    445  UNL445      0.0000
    446 ZN         18.9130   17.3426    3.1467 Zn    446  UNL446      0.0000
    447 ZN         18.9130   17.3426   12.5869 Zn    447  UNL447      0.0000
    448 ZN         14.4629   17.3426    6.2934 Zn    448  UNL448      0.0000
    449 ZN         16.6880   17.3426    0.0000 Zn    449  UNL449      0.0000
    450 ZN         16.6880   17.3426    9.4401 Zn    450  UNL450      0.0000
    451 S          17.8005   15.4157    3.9334 S.3   451  UNL451      0.0000
    452 S          17.8005   15.4157   13.3735 S.3   452  UNL452      0.0000
    453 S          13.3504   15.4157    7.0801 S.3   453  UNL453      0.0000
    454 S          15.5754   15.4157    0.7867 S.3   454  UNL454      0.0000
    455 S          15.5754   15.4157   10.2268 S.3   455  UNL455      0.0000
    456 S          14.4629   17.3426    3.9334 S.3   456  UNL456      0.0000
    457 S          14.4629   17.3426   13.3735 S.3   457  UNL457      0.0000
    458 S          16.6880   17.3426    7.0801 S.3   458  UNL458      0.0000
    459 S          18.9130   17.3426    0.7867 S.3   459  UNL459      0.0000
    460 S          18.9130   17.3426   10.2268 S.3   460  UNL460      0.0000
    461 ZN         20.0256   15.4157    0.0000 Zn    461  UNL461      0.0000
    462 ZN         20.0256   15.4157    9.4401 Zn    462  UNL462      0.0000
    463 ZN         22.2506   15.4157    3.1467 Zn    463  UNL463      0.0000
    464 ZN         22.2506   15.4157   12.5869 Zn    464  UNL464      0.0000
    465 ZN         24.4757   15.4157    6.2934 Zn    465  UNL465      0.0000
    466 ZN         25.5882   17.3426    3.1467 Zn    466  UNL466      0.0000
    467 ZN         25.5882   17.3426   12.5869 Zn    467  UNL467      0.0000
    468 ZN         21.1381   17.3426    6.2934 Zn    468  UNL468      0.0000
    469 ZN         23.3632   17.3426    0.0000 Zn    469  UNL469      0.0000
    470 ZN         23.3632   17.3426    9.4401 Zn    470  UNL470      0.0000
    471 S          24.4757   15.4157    3.9334 S.3   471  UNL471      0.0000
    472 S          24.4757   15.4157   13.3735 S.3   472  UNL472      0.0000
    473 S          20.0256   15.4157    7.0801 S.3   473  UNL473      0.0000
    474 S          22.2506   15.4157    0.7867 S.3   474  UNL474      0.0000
    475 S          22.2506   15.4157   10.2268 S.3   475  UNL475      0.0000
    476 S          21.1381   17.3426    3.9334 S.3   476  UNL476      0.0000
    477 S          21.1381   17.3426   13.3735 S.3   477  UNL477      0.0000
    478 S          23.3632   17.3426    7.0801 S.3   478  UNL478      0.0000
    479 S          25.5882   17.3426    0.7867 S.3   479  UNL479      0.0000
    480 S          25.5882   17.3426   10.2268 S.3   480  UNL480      0.0000
    481 ZN         26.7008   15.4157    0.0000 Zn    481  UNL481      0.0000
    482 ZN         26.7008   15.4157    9.4401 Zn    482  UNL482      0.0000
    483 ZN         28.9258   15.4157    3.1467 Zn    483  UNL483      0.0000
    484 ZN         28.9258   15.4157   12.5869 Zn    484  UNL484      0.0000
    485 ZN         31.1509   15.4157    6.2934 Zn    485  UNL485      0.0000
    486 ZN         32.2634   17.3426    3.1467 Zn    486  UNL486      0.0000
    487 ZN         32.2634   17.3426   12.5869 Zn    487  UNL487      0.0000
    488 ZN         27.8133   17.3426    6.2934 Zn    488  UNL488      0.0000
    489 ZN         30.0384   17.3426    0.0000 Zn    489  UNL489      0.0000
    490 ZN         30.0384   17.3426    9.4401 Zn    490  UNL490      0.0000
    491 S          31.1509   15.4157    3.9334 S.3   491  UNL491      0.0000
    492 S          31.1509   15.4157   13.3735 S.3   492  UNL492      0.0000
    493 S          26.7008   15.4157    7.0801 S.3   493  UNL493      0.0000
    494 S          28.9258   15.4157    0.7867 S.3   494  UNL494      0.0000
    495 S          28.9258   15.4157   10.2268 S.3   495  UNL495      0.0000
    496 S          27.8133   17.3426    3.9334 S.3   496  UNL496      0.0000
    497 S          27.8133   17.3426   13.3735 S.3   497  UNL497      0.0000
    498 S          30.0384   17.3426    7.0801 S.3   498  UNL498      0.0000
    499 S          32.2634   17.3426    0.7867 S.3   499  UNL499      0.0000
    500 S          32.2634   17.3426   10.2268 S.3   500  UNL500      0.0000
    501 ZN          0.0000   19.2696    0.0000 Zn    501  UNL501      0.0000
    502 ZN          0.0000   19.2696    9.4401 Zn    502  UNL502      0.0000
    503 ZN          2.2251   19.2696    3.1467 Zn    503  UNL503      0.0000
    504 ZN          2.2251   19.2696   12.5869 Zn    504  UNL504      0.0000
    505 ZN          4.4501   19.2696    6.2934 Zn    505  UNL505      0.0000
    506 ZN          5.5627   21.1966    3.1467 Zn    506  UNL506      0.0000
    507 ZN          5.5627   21.1966   12.5869 Zn    507  UNL507      0.0000
    508 ZN          1.1125   21.1966    6.2934 Zn    508  UNL508      0.0000
    509 ZN          3.3376   21.1966    0.0000 Zn    509  UNL509      0.0000
    510 ZN          3.3376   21.1966    9.4401 Zn    510  UNL510      0.0000
    511 S           4.4501   19.2696    3.9334 S.3   511  UNL511      0.0000
    512 S           4.4501   19.2696   13.3735 S.3   512  UNL512      0.0000
    513 S           0.0000   19.2696    7.0801 S.3   513  UNL513      0.0000
    514 S           2.2251   19.2696    0.7867 S.3   514  UNL514      0.0000
    515 S           2.2251   19.2696   10.2268 S.3   515  UNL515      0.0000
    516 S           1.1125   21.1966    3.9334 S.3   516  UNL516      0.0000
    517 S           1.1125   21.1966   13.3735 S.3   517  UNL517      0.0000
    518 S           3.3376   21.1966    7.0801 S.3   518  UNL518      0.0000
    519 S           5.5627   21.1966    0.7867 S.3   519  UNL519      0.0000
    520 S           5.5627   21.1966   10.2268 S.3   520  UNL520      0.0000
    521 ZN          6.6752   19.2696    0.0000 Zn    521  UNL521      0.0000
    522 ZN          6.6752   19.2696    9.4401 Zn    522  UNL522      0.0000
    523 ZN          8.9002   19.2696    3.1467 Zn    523  UNL523      0.0000
    524 ZN          8.9002   19.2696   12.5869 Zn    524  UNL524      0.0000
    525 ZN         11.1253   19.2696    6.2934 Zn    525  UNL525      0.0000
    526 ZN         12.2378   21.1966    3.1467 Zn    526  UNL526      0.0000
    527 ZN         12.2378   21.1966   12.5869 Zn    527  UNL527      0.0000
    528 ZN          7.7877   21.1966    6.2934 Zn    528  UNL528      0.0000
    529 ZN         10.0128   21.1966    0.0000 Zn    529  UNL529      0.0000
    530 ZN         10.0128   21.1966    9.4401 Zn    530  UNL530      0.0000
    531 S          11.1253   19.2696    3.9334 S.3   531  UNL531      0.0000
    532 S          11.1253   19.2696   13.3735 S.3   532  UNL532      0.0000
    533 S           6.6752   19.2696    7.0801 S.3   533  UNL533      0.0000
    534 S           8.9002   19.2696    0.7867 S.3   534  UNL534      0.0000
    535 S           8.9002   19.2696   10.2268 S.3   535  UNL535      0.0000
    536 S           7.7877   21.1966    3.9334 S.3   536  UNL536      0.0000
    537 S           7.7877   21.1966   13.3735 S.3   537  UNL537      0.0000
    538 S          10.0128   21.1966    7.0801 S.3   538  UNL538      0.0000
    539 S          12.2378   21.1966    0.7867 S.3   539  UNL539      0.0000
    540 S          12.2378   21.1966   10.2268 S.3   540  UNL540      0.0000
    541 ZN         13.3504   19.2696    0.0000 Zn    541  UNL541      0.0000
    542 ZN         13.3504   19.2696    9.4401 Zn    542  UNL542      0.0000
    543 ZN         15.5754   19.2696    3.1467 Zn    543  UNL543      0.0000
    544 ZN         15.5754   19.2696   12.5869 Zn    544  UNL544      0.0000
    545 ZN         17.8005   19.2696    6.2934 Zn    545  UNL545      0.0000
    546 ZN         18.9130   21.1966    3.1467 Zn    546  UNL546      0.0000
    547 ZN         18.9130   21.1966   12.5869 Zn    547  UNL547      0.0000
    548 ZN         14.4629   21.1966    6.2934 Zn    548  UNL548      0.0000
    549 ZN         16.6880   21.1966    0.0000 Zn    549  UNL549      0.0000
    550 ZN         16.6880   21.1966    9.4401 Zn    550  UNL550      0.0000
    551 S          17.8005   19.2696    3.9334 S.3   551  UNL551      0.0000
    552 S          17.8005   19.2696   13.3735 S.3   552  UNL552      0.0000
    553 S          13.3504   19.2696    7.0801 S.3   553  UNL553      0.0000
    554 S          15.5754   19.2696    0.7867 S.3   554  UNL554      0.0000
    555 S          15.5754   19.2696   10.2268 S.3   555  UNL555      0.0000
    556 S          14.4629   21.1966    3.9334 S.3   556  UNL556      0.0000
    557 S          14.4629   21.1966   13.3735 S.3   557  UNL557      0.0000
    558 S          16.6880   21.1966    7.0801 S.3   558  UNL558      0.0000
    559 S          18.9130   21.1966    0.7867 S.3   559  UNL559      0.0000
    560 S          18.9130   21.1966   10.2268 S.3   560  UNL560      0.0000
    561 ZN         20.0256   19.2696    0.0000 Zn    561  UNL561      0.0000
    562 ZN         20.0256   19.2696    9.4401 Zn    562  UNL562      0.0000
    563 ZN         22.2506   19.2696    3.1467 Zn    563  UNL563      0.0000
    564 ZN         22.2506   19.2696   12.5869 Zn    564  UNL564      0.0000
    565 ZN         24.4757   19.2696    6.2934 Zn    565  UNL565      0.0000
    566 ZN         25.5882   21.1966    3.1467 Zn    566  UNL566      0.0000
    567 ZN         25.5882   21.1966   12.5869 Zn    567  UNL567      0.0000
    568 ZN         21.1381   21.1966    6.2934 Zn    568  UNL568      0.0000
    569 ZN         23.3632   21.1966    0.0000 Zn    569  UNL569      0.0000
    570 ZN         23.3632   21.1966    9.4401 Zn    570  UNL570      0.0000
    571 S          24.4757   19.2696    3.9334 S.3   571  UNL571      0.0000
    572 S          24.4757   19.2696   13.3735 S.3   572  UNL572      0.0000
    573 S          20.0256   19.2696    7.0801 S.3   573  UNL573      0.0000
    574 S          22.2506   19.2696    0.7867 S.3   574  UNL574      0.0000
    575 S          22.2506   19.2696   10.2268 S.3   575  UNL575      0.0000
    576 S          21.1381   21.1966    3.9334 S.3   576  UNL576      0.0000
    577 S          21.1381   21.1966   13.3735 S.3   577  UNL577      0.0000
    578 S          23.3632   21.1966    7.0801 S.3   578  UNL578      0.0000
    579 S          25.5882   21.1966    0.7867 S.3   579  UNL579      0.0000
    580 S          25.5882   21.1966   10.2268 S.3   580  UNL580      0.0000
    581 ZN         26.7008   19.2696    0.0000 Zn    581  UNL581      0.0000
    582 ZN         26.7008   19.2696    9.4401 Zn    582  UNL582      0.0000
    583 ZN         28.9258   19.2696    3.1467 Zn    583  UNL583      0.0000
    584 ZN         28.9258   19.2696   12.5869 Zn    584  UNL584      0.0000
    585 ZN         31.1509   19.2696    6.2934 Zn    585  UNL585      0.0000
    586 ZN         32.2634   21.1966    3.1467 Zn    586  UNL586      0.0000
    587 ZN         32.2634   21.1966   12.5869 Zn    587  UNL587      0.0000
    588 ZN         27.8133   21.1966    6.2934 Zn    588  UNL588      0.0000
    589 ZN         30.0384   21.1966    0.0000 Zn    589  UNL589      0.0000
    590 ZN         30.0384   21.1966    9.4401 Zn    590  UNL590      0.0000
    591 S          31.1509   19.2696    3.9334 S.3   591  UNL591      0.0000
    592 S          31.1509   19.2696   13.3735 S.3   592  UNL592      0.0000
    593 S          26.7008   19.2696    7.0801 S.3   593  UNL593      0.0000
    594 S          28.9258   19.2696    0.7867 S.3   594  UNL594      0.0000
    595 S          28.9258   19.2696   10.2268 S.3   595  UNL595      0.0000
    596 S          27.8133   21.1966    3.9334 S.3   596  UNL596      0.0000
    597 S          27.8133   21.1966   13.3735 S.3   597  UNL597      0.0000
    598 S          30.0384   21.1966    7.0801 S.3   598  UNL598      0.0000
    599 S          32.2634   21.1966    0.7867 S.3   599  UNL599      0.0000
    600 S          32.2634   21.1966   10.2268 S.3   600  UNL600      0.0000
    601 ZN          0.0000   23.1235    0.0000 Zn    601  UNL601      0.0000
    602 ZN          0.0000   23.1235    9.4401 Zn    602  UNL602      0.0000
    603 ZN          2.2251   23.1235    3.1467 Zn    603  UNL603      0.0000
    604 ZN          2.2251   23.1235   12.5869 Zn    604  UNL604      0.0000
    605 ZN          4.4501   23.1235    6.2934 Zn    605  UNL605      0.0000
    606 ZN          5.5627   25.0505    3.1467 Zn    606  UNL606      0.0000
    607 ZN          5.5627   25.0505   12.5869 Zn    607  UNL607      0.0000
    608 ZN          1.1125   25.0505    6.2934 Zn    608  UNL608      0.0000
    609 ZN          3.3376   25.0505    0.0000 Zn    609  UNL609      0.0000
    610 ZN          3.3376   25.0505    9.4401 Zn    610  UNL610      0.0000
    611 S           4.4501   23.1235    3.9334 S.3   611  UNL611      0.0000
    612 S           4.4501   23.1235   13.3735 S.3   612  UNL612      0.0000
    613 S           0.0000   23.1235    7.0801 S.3   613  UNL613      0.0000
    614 S           2.2251   23.1235    0.7867 S.3   614  UNL614      0.0000
    615 S           2.2251   23.1235   10.2268 S.3   615  UNL615      0.0000
    616 S           1.1125   25.0505    3.9334 S.3   616  UNL616      0.0000
    617 S           1.1125   25.0505   13.3735 S.3   617  UNL617      0.0000
    618 S           3.3376   25.0505    7.0801 S.3   618  UNL618      0.0000
    619 S           5.5627   25.0505    0.7867 S.3   619  UNL619      0.0000
    620 S           5.5627   25.0505   10.2268 S.3   620  UNL620      0.0000
    621 ZN          6.6752   23.1235    0.0000 Zn    621  UNL621      0.0000
    622 ZN          6.6752   23.1235    9.4401 Zn    622  UNL622      0.0000
    623 ZN          8.9002   23.1235    3.1467 Zn    623  UNL623      0.0000
    624 ZN          8.9002   23.1235   12.5869 Zn    624  UNL624      0.0000
    625 ZN         11.1253   23.1235    6.2934 Zn    625  UNL625      0.0000
    626 ZN         12.2378   25.0505    3.1467 Zn    626  UNL626      0.0000
    627 ZN         12.2378   25.0505   12.5869 Zn    627  UNL627      0.0000
    628 ZN          7.7877   25.0505    6.2934 Zn    628  UNL628      0.0000
    629 ZN         10.0128   25.0505    0.0000 Zn    629  UNL629      0.0000
    630 ZN         10.0128   25.0505    9.4401 Zn    630  UNL630      0.0000
    631 S          11.1253   23.1235    3.9334 S.3   631  UNL631      0.0000
    632 S          11.1253   23.1235   13.3735 S.3   632  UNL632      0.0000
    633 S           6.6752   23.1235    7.0801 S.3   633  UNL633      0.0000
    634 S           8.9002   23.1235    0.7867 S.3   634  UNL634      0.0000
    635 S           8.9002   23.1235   10.2268 S.3   635  UNL635      0.0000
    636 S           7.7877   25.0505    3.9334 S.3   636  UNL636      0.0000
    637 S           7.7877   25.0505   13.3735 S.3   637  UNL637      0.0000
    638 S          10.0128   25.0505    7.0801 S.3   638  UNL638      0.0000
    639 S          12.2378   25.0505    0.7867 S.3   639  UNL639      0.0000
    640 S          12.2378   25.0505   10.2268 S.3   640  UNL640      0.0000
    641 ZN         13.3504   23.1235    0.0000 Zn    641  UNL641      0.0000
    642 ZN         13.3504   23.1235    9.4401 Zn    642  UNL642      0.0000
    643 ZN         15.5754   23.1235    3.1467 Zn    643  UNL643      0.0000
    644 ZN         15.5754   23.1235   12.5869 Zn    644  UNL644      0.0000
    645 ZN         17.8005   23.1235    6.2934 Zn    645  UNL645      0.0000
    646 ZN         18.9130   25.0505    3.1467 Zn    646  UNL646      0.0000
    647 ZN         18.9130   25.0505   12.5869 Zn    647  UNL647      0.0000
    648 ZN         14.4629   25.0505    6.2934 Zn    648  UNL648      0.0000
    649 ZN         16.6880   25.0505    0.0000 Zn    649  UNL649      0.0000
    650 ZN         16.6880   25.0505    9.4401 Zn    650  UNL650      0.0000
    651 S          17.8005   23.1235    3.9334 S.3   651  UNL651      0.0000
    652 S          17.8005   23.1235   13.3735 S.3   652  UNL652      0.0000
    653 S          13.3504   23.1235    7.0801 S.3   653  UNL653      0.0000
    654 S          15.5754   23.1235    0.7867 S.3   654  UNL654      0.0000
    655 S          15.5754   23.1235   10.2268 S.3   655  UNL655      0.0000
    656 S          14.4629   25.0505    3.9334 S.3   656  UNL656      0.0000
    657 S          14.4629   25.0505   13.3735 S.3   657  UNL657      0.0000
    658 S          16.6880   25.0505    7.0801 S.3   658  UNL658      0.0000
    659 S          18.9130   25.0505    0.7867 S.3   659  UNL659      0.0000
    660 S          18.9130   25.0505   10.2268 S.3   660  UNL660      0.0000
    661 ZN         20.0256   23.1235    0.0000 Zn    661  UNL661      0.0000
    662 ZN         20.0256   23.1235    9.4401 Zn    662  UNL662      0.0000
    663 ZN         22.2506   23.1235    3.1467 Zn    663  UNL663      0.0000
    664 ZN         22.2506   23.1235   12.5869 Zn    664  UNL664      0.0000
    665 ZN         24.4757   23.1235    6.2934 Zn    665  UNL665      0.0000
    666 ZN         25.5882   25.0505    3.1467 Zn    666  UNL666      0.0000
    667 ZN         25.5882   25.0505   12.5869 Zn    667  UNL667      0.0000
    668 ZN         21.1381   25.0505    6.2934 Zn    668  UNL668      0.0000
    669 ZN         23.3632   25.0505    0.0000 Zn    669  UNL669      0.0000
    670 ZN         23.3632   25.0505    9.4401 Zn    670  UNL670      0.0000
    671 S          24.4757   23.1235    3.9334 S.3   671  UNL671      0.0000
    672 S          24.4757   23.1235   13.3735 S.3   672  UNL672      0.0000
    673 S          20.0256   23.1235    7.0801 S.3   673  UNL673      0.0000
    674 S          22.2506   23.1235    0.7867 S.3   674  UNL674      0.0000
    675 S          22.2506   23.1235   10.2268 S.3   675  UNL675      0.0000
    676 S          21.1381   25.0505    3.9334 S.3   676  UNL676      0.0000
    677 S          21.1381   25.0505   13.3735 S.3   677  UNL677      0.0000
    678 S          23.3632   25.0505    7.0801 S.3   678  UNL678      0.0000
    679 S          25.5882   25.0505    0.7867 S.3   679  UNL679      0.0000
    680 S          25.5882   25.0505   10.2268 S.3   680  UNL680      0.0000
    681 ZN         26.7008   23.1235    0.0000 Zn    681  UNL681      0.0000
    682 ZN         26.7008   23.1235    9.4401 Zn    682  UNL682      0.0000
    683 ZN         28.9258   23.1235    3.1467 Zn    683  UNL683      0.0000
    684 ZN         28.9258   23.1235   12.5869 Zn    684  UNL684      0.0000
    685 ZN         31.1509   23.1235    6.2934 Zn    685  UNL685      0.0000
    686 ZN         32.2634   25.0505    3.1467 Zn    686  UNL686      0.0000
    687 ZN         32.2634   25.0505   12.5869 Zn    687  UNL687      0.0000
    688 ZN         27.8133   25.0505    6.2934 Zn    688  UNL688      0.0000
    689 ZN         30.0384   25.0505    0.0000 Zn    689  UNL689      0.0000
    690 ZN         30.0384   25.0505    9.4401 Zn    690  UNL690      0.0000
    691 S          31.1509   23.1235    3.9334 S.3   691  UNL691      0.0000
    692 S          31.1509   23.1235   13.3735 S.3   692  UNL692      0.0000
    693 S          26.7008   23.1235    7.0801 S.3   693  UNL693      0.0000
    694 S          28.9258   23.1235    0.7867 S.3   694  UNL694      0.0000
    695 S          28.9258   23.1235   10.2268 S.3   695  UNL695      0.0000
    696 S          27.8133   25.0505    3.9334 S.3   696  UNL696      0.0000
    697 S          27.8133   25.0505   13.3735 S.3   697  UNL697      0.0000
    698 S          30.0384   25.0505    7.0801 S.3   698  UNL698      0.0000
    699 S          32.2634   25.0505    0.7867 S.3   699  UNL699      0.0000
    700 S          32.2634   25.0505   10.2268 S.3   700  UNL700      0.0000
    701 ZN          0.0000   26.9774    0.0000 Zn    701  UNL701      0.0000
    702 ZN          0.0000   26.9774    9.4401 Zn    702  UNL702      0.0000
    703 ZN          2.2251   26.9774    3.1467 Zn    703  UNL703      0.0000
    704 ZN          2.2251   26.9774   12.5869 Zn    704  UNL704      0.0000
    705 ZN          4.4501   26.9774    6.2934 Zn    705  UNL705      0.0000
    706 ZN          5.5627   28.9044    3.1467 Zn    706  UNL706      0.0000
    707 ZN          5.5627   28.9044   12.5869 Zn    707  UNL707      0.0000
    708 ZN          1.1125   28.9044    6.2934 Zn    708  UNL708      0.0000
    709 ZN          3.3376   28.9044    0.0000 Zn    709  UNL709      0.0000
    710 ZN          3.3376   28.9044    9.4401 Zn    710  UNL710      0.0000
    711 S           4.4501   26.9774    3.9334 S.3   711  UNL711      0.0000
    712 S           4.4501   26.9774   13.3735 S.3   712  UNL712      0.0000
    713 S           0.0000   26.9774    7.0801 S.3   713  UNL713      0.0000
    714 S           2.2251   26.9774    0.7867 S.3   714  UNL714      0.0000
    715 S           2.2251   26.9774   10.2268 S.3   715  UNL715      0.0000
    716 S           1.1125   28.9044    3.9334 S.3   716  UNL716      0.0000
    717 S           1.1125   28.9044   13.3735 S.3   717  UNL717      0.0000
    718 S           3.3376   28.9044    7.0801 S.3   718  UNL718      0.0000
    719 S           5.5627   28.9044    0.7867 S.3   719  UNL719      0.0000
    720 S           5.5627   28.9044   10.2268 S.3   720  UNL720      0.0000
    721 ZN          6.6752   26.9774    0.0000 Zn    721  UNL721      0.0000
    722 ZN          6.6752   26.9774    9.4401 Zn    722  UNL722      0.0000
    723 ZN          8.9002   26.9774    3.1467 Zn    723  UNL723      0.0000
    724 ZN          8.9002   26.9774   12.5869 Zn    724  UNL724      0.0000
    725 ZN         11.1253   26.9774    6.2934 Zn    725  UNL725      0.0000
    726 ZN         12.2378   28.9044    3.1467 Zn    726  UNL726      0.0000
    727 ZN         12.2378   28.9044   12.5869 Zn    727  UNL727      0.0000
    728 ZN          7.7877   28.9044    6.2934 Zn    728  UNL728      0.0000
    729 ZN         10.0128   28.9044    0.0000 Zn    729  UNL729      0.0000
    730 ZN         10.0128   28.9044    9.4401 Zn    730  UNL730      0.0000
    731 S          11.1253   26.9774    3.9334 S.3   731  UNL731      0.0000
    732 S          11.1253   26.9774   13.3735 S.3   732  UNL732      0.0000
    733 S           6.6752   26.9774    7.0801 S.3   733  UNL733      0.0000
    734 S           8.9002   26.9774    0.7867 S.3   734  UNL734      0.0000
    735 S           8.9002   26.9774   10.2268 S.3   735  UNL735      0.0000
    736 S           7.7877   28.9044    3.9334 S.3   736  UNL736      0.0000
    737 S           7.7877   28.9044   13.3735 S.3   737  UNL737      0.0000
    738 S          10.0128   28.9044    7.0801 S.3   738  UNL738      0.0000
    739 S          12.2378   28.9044    0.7867 S.3   739  UNL739      0.0000
    740 S          12.2378   28.9044   10.2268 S.3   740  UNL740      0.0000
    741 ZN         13.3504   26.9774    0.0000 Zn    741  UNL741      0.0000
    742 ZN         13.3504   26.9774    9.4401 Zn    742  UNL742      0.0000
    743 ZN         15.5754   26.9774    3.1467 Zn    743  UNL743      0.0000
    744 ZN         15.5754   26.9774   12.5869 Zn    744  UNL744      0.0000
    745 ZN         17.8005   26.9774    6.2934 Zn    745  UNL745      0.0000
    746 ZN         18.9130   28.9044    3.1467 Zn    746  UNL746      0.0000
    747 ZN         18.9130   28.9044   12.5869 Zn    747  UNL747      0.0000
    748 ZN         14.4629   28.9044    6.2934 Zn    748  UNL748      0.0000
    749 ZN         16.6880   28.9044    0.0000 Zn    749  UNL749      0.0000
    750 ZN         16.6880   28.9044    9.4401 Zn    750  UNL750      0.0000
    751 S          17.8005   26.9774    3.9334 S.3   751  UNL751      0.0000
    752 S          17.8005   26.9774   13.3735 S.3   752  UNL752      0.0000
    753 S          13.3504   26.9774    7.0801 S.3   753  UNL753      0.0000
    754 S          15.5754   26.9774    0.7867 S.3   754  UNL754      0.0000
    755 S          15.5754   26.9774   10.2268 S.3   755  UNL755      0.0000
    756 S          14.4629   28.9044    3.9334 S.3   756  UNL756      0.0000
    757 S          14.4629   28.9044   13.3735 S.3   757  UNL757      0.0000
    758 S          16.6880   28.9044    7.0801 S.3   758  UNL758      0.0000
    759 S          18.9130   28.9044    0.7867 S.3   759  UNL759      0.0000
    760 S          18.9130   28.9044   10.2268 S.3   760  UNL760      0.0000
    761 ZN         20.0256   26.9774    0.0000 Zn    761  UNL761      0.0000
    762 ZN         20.0256   26.9774    9.4401 Zn    762  UNL762      0.0000
    763 ZN         22.2506   26.9774    3.1467 Zn    763  UNL763      0.0000
    764 ZN         22.2506   26.9774   12.5869 Zn    764  UNL764      0.0000
    765 ZN         24.4757   26.9774    6.2934 Zn    765  UNL765      0.0000
    766 ZN         25.5882   28.9044    3.1467 Zn    766  UNL766      0.0000
    767 ZN         25.5882   28.9044   12.5869 Zn    767  UNL767      0.0000
    768 ZN         21.1381   28.9044    6.2934 Zn    768  UNL768      0.0000
    769 ZN         23.3632   28.9044    0.0000 Zn    769  UNL769      0.0000
    770 ZN         23.3632   28.9044    9.4401 Zn    770  UNL770      0.0000
    771 S          24.4757   26.9774    3.9334 S.3   771  UNL771      0.0000
    772 S          24.4757   26.9774   13.3735 S.3   772  UNL772      0.0000
    773 S          20.0256   26.9774    7.0801 S.3   773  UNL773      0.0000
    774 S          22.2506   26.9774    0.7867 S.3   774  UNL774      0.0000
    775 S          22.2506   26.9774   10.2268 S.3   775  UNL775      0.0000
    776 S          21.1381   28.9044    3.9334 S.3   776  UNL776      0.0000
    777 S          21.1381   28.9044   13.3735 S.3   777  UNL777      0.0000
    778 S          23.3632   28.9044    7.0801 S.3   778  UNL778      0.0000
    779 S          25.5882   28.9044    0.7867 S.3   779  UNL779      0.0000
    780 S          25.5882   28.9044   10.2268 S.3   780  UNL780      0.0000
    781 ZN         26.7008   26.9774    0.0000 Zn    781  UNL781      0.0000
    782 ZN         26.7008   26.9774    9.4401 Zn    782  UNL782      0.0000
    783 ZN         28.9258   26.9774    3.1467 Zn    783  UNL783      0.0000
    784 ZN         28.9258   26.9774   12.5869 Zn    784  UNL784      0.0000
    785 ZN         31.1509   26.9774    6.2934 Zn    785  UNL785      0.0000
    786 ZN         32.2634   28.9044    3.1467 Zn    786  UNL786      0.0000
    787 ZN         32.2634   28.9044   12.5869 Zn    787  UNL787      0.0000
    788 ZN         27.8133   28.9044    6.2934 Zn    788  UNL788      0.0000
    789 ZN         30.0384   28.9044    0.0000 Zn    789  UNL789      0.0000
    790 ZN         30.0384   28.9044    9.4401 Zn    790  UNL790      0.0000
    791 S          31.1509   26.9774    3.9334 S.3   791  UNL791      0.0000
    792 S          31.1509   26.9774   13.3735 S.3   792  UNL792      0.0000
    793 S          26.7008   26.9774    7.0801 S.3   793  UNL793      0.0000
    794 S          28.9258   26.9774    0.7867 S.3   794  UNL794      0.0000
    795 S          28.9258   26.9774   10.2268 S.3   795  UNL795      0.0000
    796 S          27.8133   28.9044    3.9334 S.3   796  UNL796      0.0000
    797 S          27.8133   28.9044   13.3735 S.3   797  UNL797      0.0000
    798 S          30.0384   28.9044    7.0801 S.3   798  UNL798      0.0000
    799 S          32.2634   28.9044    0.7867 S.3   799  UNL799      0.0000
    800 S          32.2634   28.9044   10.2268 S.3   800  UNL800      0.0000
    801 ZN          0.0000   30.8314    0.0000 Zn    801  UNL801      0.0000
    802 ZN          0.0000   30.8314    9.4401 Zn    802  UNL802      0.0000
    803 ZN          2.2251   30.8314    3.1467 Zn    803  UNL803      0.0000
    804 ZN          2.2251   30.8314   12.5869 Zn    804  UNL804      0.0000
    805 ZN          4.4501   30.8314    6.2934 Zn    805  UNL805      0.0000
    806 ZN          5.5627   32.7583    3.1467 Zn    806  UNL806      0.0000
    807 ZN          5.5627   32.7583   12.5869 Zn    807  UNL807      0.0000
    808 ZN          1.1125   32.7583    6.2934 Zn    808  UNL808      0.0000
    809 ZN          3.3376   32.7583    0.0000 Zn    809  UNL809      0.0000
    810 ZN          3.3376   32.7583    9.4401 Zn    810  UNL810      0.0000
    811 S           4.4501   30.8314    3.9334 S.3   811  UNL811      0.0000
    812 S           4.4501   30.8314   13.3735 S.3   812  UNL812      0.0000
    813 S           0.0000   30.8314    7.0801 S.3   813  UNL813      0.0000
    814 S           2.2251   30.8314    0.7867 S.3   814  UNL814      0.0000
    815 S           2.2251   30.8314   10.2268 S.3   815  UNL815      0.0000
    816 S           1.1125   32.7583    3.9334 S.3   816  UNL816      0.0000
    817 S           1.1125   32.7583   13.3735 S.3   817  UNL817      0.0000
    818 S           3.3376   32.7583    7.0801 S.3   818  UNL818      0.0000
    819 S           5.5627   32.7583    0.7867 S.3   819  UNL819      0.0000
    820 S           5.5627   32.7583   10.2268 S.3   820  UNL820      0.0000
    821 ZN          6.6752   30.8314    0.0000 Zn    821  UNL821      0.0000
    822 ZN          6.6752   30.8314    9.4401 Zn    822  UNL822      0.0000
    823 ZN          8.9002   30.8314    3.1467 Zn    823  UNL823      0.0000
    824 ZN          8.9002   30.8314   12.5869 Zn    824  UNL824      0.0000
    825 ZN         11.1253   30.8314    6.2934 Zn    825  UNL825      0.0000
    826 ZN         12.2378   32.7583    3.1467 Zn    826  UNL826      0.0000
    827 ZN         12.2378   32.7583   12.5869 Zn    827  UNL827      0.0000
    828 ZN          7.7877   32.7583    6.2934 Zn    828  UNL828      0.0000
    829 ZN         10.0128   32.7583    0.0000 Zn    829  UNL829      0.0000
    830 ZN         10.0128   32.7583    9.4401 Zn    830  UNL830      0.0000
    831 S          11.1253   30.8314    3.9334 S.3   831  UNL831      0.0000
    832 S          11.1253   30.8314   13.3735 S.3   832  UNL832      0.0000
    833 S           6.6752   30.8314    7.0801 S.3   833  UNL833      0.0000
    834 S           8.9002   30.8314    0.7867 S.3   834  UNL834      0.0000
    835 S           8.9002   30.8314   10.2268 S.3   835  UNL835      0.0000
    836 S           7.7877   32.7583    3.9334 S.3   836  UNL836      0.0000
    837 S           7.7877   32.7583   13.3735 S.3   837  UNL837      0.0000
    838 S          10.0128   32.7583    7.0801 S.3   838  UNL838      0.0000
    839 S          12.2378   32.7583    0.7867 S.3   839  UNL839      0.0000
    840 S          12.2378   32.7583   10.2268 S.3   840  UNL840      0.0000
    841 ZN         13.3504   30.8314    0.0000 Zn    841  UNL841      0.0000
    842 ZN         13.3504   30.8314    9.4401 Zn    842  UNL842      0.0000
    843 ZN         15.5754   30.8314    3.1467 Zn    843  UNL843      0.0000
    844 ZN         15.5754   30.8314   12.5869 Zn    844  UNL844      0.0000
    845 ZN         17.8005   30.8314    6.2934 Zn    845  UNL845      0.0000
    846 ZN         18.9130   32.7583    3.1467 Zn    846  UNL846      0.0000
    847 ZN         18.9130   32.7583   12.5869 Zn    847  UNL847      0.0000
    848 ZN         14.4629   32.7583    6.2934 Zn    848  UNL848      0.0000
    849 ZN         16.6880   32.7583    0.0000 Zn    849  UNL849      0.0000
    850 ZN         16.6880   32.7583    9.4401 Zn    850  UNL850      0.0000
    851 S          17.8005   30.8314    3.9334 S.3   851  UNL851      0.0000
    852 S          17.8005   30.8314   13.3735 S.3   852  UNL852      0.0000
    853 S          13.3504   30.8314    7.0801 S.3   853  UNL853      0.0000
    854 S          15.5754   30.8314    0.7867 S.3   854  UNL854      0.0000
    855 S          15.5754   30.8314   10.2268 S.3   855  UNL855      0.0000
    856 S          14.4629   32.7583    3.9334 S.3   856  UNL856      0.0000
    857 S          14.4629   32.7583   13.3735 S.3   857  UNL857      0.0000
    858 S          16.6880   32.7583    7.0801 S.3   858  UNL858      0.0000
    859 S          18.9130   32.7583    0.7867 S.3   859  UNL859      0.0000
    860 S          18.9130   32.7583   10.2268 S.3   860  UNL860      0.0000
    861 ZN         20.0256   30.8314    0.0000 Zn    861  UNL861      0.0000
    862 ZN         20.0256   30.8314    9.4401 Zn    862  UNL862      0.0000
    863 ZN         22.2506   30.8314    3.1467 Zn    863  UNL863      0.0000
    864 ZN         22.2506   30.8314   12.5869 Zn    864  UNL864      0.0000
    865 ZN         24.4757   30.8314    6.2934 Zn    865  UNL865      0.0000
    866 ZN         25.5882   32.7583    3.1467 Zn    866  UNL866      0.0000
    867 ZN         25.5882   32.7583   12.5869 Zn    867  UNL867      0.0000
    868 ZN         21.1381   32.7583    6.2934 Zn    868  UNL868      0.0000
    869 ZN         23.3632   32.7583    0.0000 Zn    869  UNL869      0.0000
    870 ZN         23.3632   32.7583    9.4401 Zn    870  UNL870      0.0000
    871 S          24.4757   30.8314    3.9334 S.3   871  UNL871      0.0000
    872 S          24.4757   30.8314   13.3735 S.3   872  UNL872      0.0000
    873 S          20.0256   30.8314    7.0801 S.3   873  UNL873      0.0000
    874 S          22.2506   30.8314    0.7867 S.3   874  UNL874      0.0000
    875 S          22.2506   30.8314   10.2268 S.3   875  UNL875      0.0000
    876 S          21.1381   32.7583    3.9334 S.3   876  UNL876      0.0000
    877 S          21.1381   32.7583   13.3735 S.3   877  UNL877      0.0000
    878 S          23.3632   32.7583    7.0801 S.3   878  UNL878      0.0000
    879 S          25.5882   32.7583    0.7867 S.3   879  UNL879      0.0000
    880 S          25.5882   32.7583   10.2268 S.3   880  UNL880      0.0000
    881 ZN         26.7008   30.8314    0.0000 Zn    881  UNL881      0.0000
    882 ZN         26.7008   30.8314    9.4401 Zn    882  UNL882      0.0000
    883 ZN         28.9258   30.8314    3.1467 Zn    883  UNL883      0.0000
    884 ZN         28.9258   30.8314   12.5869 Zn    884  UNL884      0.0000
    885 ZN         31.1509   30.8314    6.2934 Zn    885  UNL885      0.0000
    886 ZN         32.2634   32.7583    3.1467 Zn    886  UNL886      0.0000
    887 ZN         32.2634   32.7583   12.5869 Zn    887  UNL887      0.0000
    888 ZN         27.8133   32.7583    6.2934 Zn    888  UNL888      0.0000
    889 ZN         30.0384   32.7583    0.0000 Zn    889  UNL889      0.0000
    890 ZN         30.0384   32.7583    9.4401 Zn    890  UNL890      0.0000
    891 S          31.1509   30.8314    3.9334 S.3   891  UNL891      0.0000
    892 S          31.1509   30.8314   13.3735 S.3   892  UNL892      0.0000
    893 S          26.7008   30.8314    7.0801 S.3   893  UNL893      0.0000
    894 S          28.9258   30.8314    0.7867 S.3   894  UNL894      0.0000
    895 S          28.9258   30.8314   10.2268 S.3   895  UNL895      0.0000
    896 S          27.8133   32.7583    3.9334 S.3   896  UNL896      0.0000
    897 S          27.8133   32.7583   13.3735 S.3   897  UNL897      0.0000
    898 S          30.0384   32.7583    7.0801 S.3   898  UNL898      0.0000
    899 S          32.2634   32.7583    0.7867 S.3   899  UNL899      0.0000
    900 S          32.2634   32.7583   10.2268 S.3   900  UNL900      0.0000
    901 ZN          0.0000   34.6853    0.0000 Zn    901  UNL901      0.0000
    902 ZN          0.0000   34.6853    9.4401 Zn    902  UNL902      0.0000
    903 ZN          2.2251   34.6853    3.1467 Zn    903  UNL903      0.0000
    904 ZN          2.2251   34.6853   12.5869 Zn    904  UNL904      0.0000
    905 ZN          4.4501   34.6853    6.2934 Zn    905  UNL905      0.0000
    906 ZN          5.5627   36.6122    3.1467 Zn    906  UNL906      0.0000
    907 ZN          5.5627   36.6122   12.5869 Zn    907  UNL907      0.0000
    908 ZN          1.1125   36.6122    6.2934 Zn    908  UNL908      0.0000
    909 ZN          3.3376   36.6122    0.0000 Zn    909  UNL909      0.0000
    910 ZN          3.3376   36.6122    9.4401 Zn    910  UNL910      0.0000
    911 S           4.4501   34.6853    3.9334 S.3   911  UNL911      0.0000
    912 S           4.4501   34.6853   13.3735 S.3   912  UNL912      0.0000
    913 S           0.0000   34.6853    7.0801 S.3   913  UNL913      0.0000
    914 S           2.2251   34.6853    0.7867 S.3   914  UNL914      0.0000
    915 S           2.2251   34.6853   10.2268 S.3   915  UNL915      0.0000
    916 S           1.1125   36.6122    3.9334 S.3   916  UNL916      0.0000
    917 S           1.1125   36.6122   13.3735 S.3   917  UNL917      0.0000
    918 S           3.3376   36.6122    7.0801 S.3   918  UNL918      0.0000
    919 S           5.5627   36.6122    0.7867 S.3   919  UNL919      0.0000
    920 S           5.5627   36.6122   10.2268 S.3   920  UNL920      0.0000
    921 ZN          6.6752   34.6853    0.0000 Zn    921  UNL921      0.0000
    922 ZN          6.6752   34.6853    9.4401 Zn    922  UNL922      0.0000
    923 ZN          8.9002   34.6853    3.1467 Zn    923  UNL923      0.0000
    924 ZN          8.9002   34.6853   12.5869 Zn    924  UNL924      0.0000
    925 ZN         11.1253   34.6853    6.2934 Zn    925  UNL925      0.0000
    926 ZN         12.2378   36.6122    3.1467 Zn    926  UNL926      0.0000
    927 ZN         12.2378   36.6122   12.5869 Zn    927  UNL927      0.0000
    928 ZN          7.7877   36.6122    6.2934 Zn    928  UNL928      0.0000
    929 ZN         10.0128   36.6122    0.0000 Zn    929  UNL929      0.0000
    930 ZN         10.0128   36.6122    9.4401 Zn    930  UNL930      0.0000
    931 S          11.1253   34.6853    3.9334 S.3   931  UNL931      0.0000
    932 S          11.1253   34.6853   13.3735 S.3   932  UNL932      0.0000
    933 S           6.6752   34.6853    7.0801 S.3   933  UNL933      0.0000
    934 S           8.9002   34.6853    0.7867 S.3   934  UNL934      0.0000
    935 S           8.9002   34.6853   10.2268 S.3   935  UNL935      0.0000
    936 S           7.7877   36.6122    3.9334 S.3   936  UNL936      0.0000
    937 S           7.7877   36.6122   13.3735 S.3   937  UNL937      0.0000
    938 S          10.0128   36.6122    7.0801 S.3   938  UNL938      0.0000
    939 S          12.2378   36.6122    0.7867 S.3   939  UNL939      0.0000
    940 S          12.2378   36.6122   10.2268 S.3   940  UNL940      0.0000
    941 ZN         13.3504   34.6853    0.0000 Zn    941  UNL941      0.0000
    942 ZN         13.3504   34.6853    9.4401 Zn    942  UNL942      0.0000
    943 ZN         15.5754   34.6853    3.1467 Zn    943  UNL943      0.0000
    944 ZN         15.5754   34.6853   12.5869 Zn    944  UNL944      0.0000
    945 ZN         17.8005   34.6853    6.2934 Zn    945  UNL945      0.0000
    946 ZN         18.9130   36.6122    3.1467 Zn    946  UNL946      0.0000
    947 ZN         18.9130   36.6122   12.5869 Zn    947  UNL947      0.0000
    948 ZN         14.4629   36.6122    6.2934 Zn    948  UNL948      0.0000
    949 ZN         16.6880   36.6122    0.0000 Zn    949  UNL949      0.0000
    950 ZN         16.6880   36.6122    9.4401 Zn    950  UNL950      0.0000
    951 S          17.8005   34.6853    3.9334 S.3   951  UNL951      0.0000
    952 S          17.8005   34.6853   13.3735 S.3   952  UNL952      0.0000
    953 S          13.3504   34.6853    7.0801 S.3   953  UNL953      0.0000
    954 S          15.5754   34.6853    0.7867 S.3   954  UNL954      0.0000
    955 S          15.5754   34.6853   10.2268 S.3   955  UNL955      0.0000
    956 S          14.4629   36.6122    3.9334 S.3   956  UNL956      0.0000
    957 S          14.4629   36.6122   13.3735 S.3   957  UNL957      0.0000
    958 S          16.6880   36.6122    7.0801 S.3   958  UNL958      0.0000
    959 S          18.9130   36.6122    0.7867 S.3   959  UNL959      0.0000
    960 S          18.9130   36.6122   10.2268 S.3   960  UNL960      0.0000
    961 ZN         20.0256   34.6853    0.0000 Zn    961  UNL961      0.0000
    962 ZN         20.0256   34.6853    9.4401 Zn    962  UNL962      0.0000
    963 ZN         22.2506   34.6853    3.1467 Zn    963  UNL963      0.0000
    964 ZN         22.2506   34.6853   12.5869 Zn    964  UNL964      0.0000
    965 ZN         24.4757   34.6853    6.2934 Zn    965  UNL965      0.0000
    966 ZN         25.5882   36.6122    3.1467 Zn    966  UNL966      0.0000
    967 ZN         25.5882   36.6122   12.5869 Zn    967  UNL967      0.0000
    968 ZN         21.1381   36.6122    6.2934 Zn    968  UNL968      0.0000
    969 ZN         23.3632   36.6122    0.0000 Zn    969  UNL969      0.0000
    970 ZN         23.3632   36.6122    9.4401 Zn    970  UNL970      0.0000
    971 S          24.4757   34.6853    3.9334 S.3   971  UNL971      0.0000
    972 S          24.4757   34.6853   13.3735 S.3   972  UNL972      0.0000
    973 S          20.0256   34.6853    7.0801 S.3   973  UNL973      0.0000
    974 S          22.2506   34.6853    0.7867 S.3   974  UNL974      0.0000
    975 S          22.2506   34.6853   10.2268 S.3   975  UNL975      0.0000
    976 S          21.1381   36.6122    3.9334 S.3   976  UNL976      0.0000
    977 S          21.1381   36.6122   13.3735 S.3   977  UNL977      0.0000
    978 S          23.3632   36.6122    7.0801 S.3   978  UNL978      0.0000
    979 S          25.5882   36.6122    0.7867 S.3   979  UNL979      0.0000
    980 S          25.5882   36.6122   10.2268 S.3   980  UNL980      0.0000
    981 ZN         26.7008   34.6853    0.0000 Zn    981  UNL981      0.0000
    982 ZN         26.7008   34.6853    9.4401 Zn    982  UNL982      0.0000
    983 ZN         28.9258   34.6853    3.1467 Zn    983  UNL983      0.0000
    984 ZN         28.9258   34.6853   12.5869 Zn    984  UNL984      0.0000
    985 ZN         31.1509   34.6853    6.2934 Zn    985  UNL985      0.0000
    986 ZN         32.2634   36.6122    3.1467 Zn    986  UNL986      0.0000
    987 ZN         32.2634   36.6122   12.5869 Zn    987  UNL987      0.0000
    988 ZN         27.8133   36.6122    6.2934 Zn    988  UNL988      0.0000
    989 ZN         30.0384   36.6122    0.0000 Zn    989  UNL989      0.0000
    990 ZN         30.0384   36.6122    9.4401 Zn    990  UNL990      0.0000
    991 S          31.1509   34.6853    3.9334 S.3   991  UNL991      0.0000
    992 S          31.1509   34.6853   13.3735 S.3   992  UNL992      0.0000
    993 S          26.7008   34.6853    7.0801 S.3   993  UNL993      0.0000
    994 S          28.9258   34.6853    0.7867 S.3   994  UNL994      0.0000
    995 S          28.9258   34.6853   10.2268 S.3   995  UNL995      0.0000
    996 S          27.8133   36.6122    3.9334 S.3   996  UNL996      0.0000
    997 S          27.8133   36.6122   13.3735 S.3   997  UNL997      0.0000
    998 S          30.0384   36.6122    7.0801 S.3   998  UNL998      0.0000
    999 S          32.2634   36.6122    0.7867 S.3   999  UNL999      0.0000
   1000 S          32.2634   36.6122   10.2268 S.3   1000  UNL1000     0.0000
@<TRIPOS>BOND
