@<TRIPOS>MOLECULE
*****
   54    53     1     0     0
SMALL
bcc


@<TRIPOS>ATOM
      1 O            0.4900    -5.1390     7.9330 oh         1 UNL      -0.612100
      2 O1          -0.6030    -5.1670     6.0210 o          1 UNL      -0.551000
      3 C            4.3740    -3.4920     1.7970 c3         1 UNL      -0.079400
      4 C1           4.3700    -3.6050     0.2580 c3         1 UNL      -0.080400
      5 C2           3.0430    -4.0020     2.3890 c3         1 UNL      -0.079400
      6 C3           5.7090    -3.1310    -0.3520 c3         1 UNL      -0.075400
      7 C4           3.0390    -3.9250     3.9300 c3         1 UNL      -0.078400
      8 C5           8.3110    -1.8870    -5.8350 c3         1 UNL      -0.079400
      9 C6           8.6870    -2.8600    -6.9760 c3         1 UNL      -0.078400
     10 C7           6.9200    -2.2260    -5.2600 c3         1 UNL      -0.077400
     11 C8           5.7720    -3.3620    -1.8780 c3         1 UNL      -0.048200
     12 C9           1.7110    -4.4600     4.5070 c3         1 UNL      -0.080400
     13 C10         10.0050    -2.4770    -7.6880 c3         1 UNL      -0.078400
     14 C11          6.5350    -1.2790    -4.1040 c3         1 UNL      -0.049200
     15 C12          4.8180    -2.4620    -2.6450 c2         1 UNL      -0.174200
     16 C13         11.2480    -2.6380    -6.7860 c3         1 UNL      -0.080400
     17 C14          5.1410    -1.5900    -3.5970 c2         1 UNL      -0.174200
     18 C15          1.7000    -4.4020     6.0510 c3         1 UNL      -0.126400
     19 C16         12.5440    -2.3580    -7.5700 c3         1 UNL      -0.093100
     20 C17          0.4160    -4.9520     6.6440 c          1 UNL       0.635100
     21 H            4.5300    -2.4500     2.0880 hc         1 UNL       0.039200
     22 H1           5.2020    -4.0780     2.2040 hc         1 UNL       0.039200
     23 H2           4.1920    -4.6460    -0.0250 hc         1 UNL       0.042700
     24 H3           3.5470    -3.0090    -0.1420 hc         1 UNL       0.042700
     25 H4           2.8820    -5.0380     2.0780 hc         1 UNL       0.043700
     26 H5           2.2160    -3.4070     1.9920 hc         1 UNL       0.043700
     27 H6           6.5270    -3.6830     0.1160 hc         1 UNL       0.040200
     28 H7           5.8660    -2.0710    -0.1330 hc         1 UNL       0.040200
     29 H8           3.8720    -4.5110     4.3260 hc         1 UNL       0.041200
     30 H9           3.1840    -2.8880     4.2440 hc         1 UNL       0.041200
     31 H10          8.3070    -0.8620    -6.2130 hc         1 UNL       0.040200
     32 H11          9.0530    -1.9450    -5.0350 hc         1 UNL       0.040200
     33 H12          7.8860    -2.8610    -7.7180 hc         1 UNL       0.039200
     34 H13          8.7630    -3.8780    -6.5850 hc         1 UNL       0.039200
     35 H14          6.1700    -2.1510    -6.0520 hc         1 UNL       0.041200
     36 H15          6.9140    -3.2580    -4.8990 hc         1 UNL       0.041200
     37 H16          5.5320    -4.4060    -2.0930 hc         1 UNL       0.047700
     38 H17          6.8020    -3.2170    -2.2050 hc         1 UNL       0.047700
     39 H18          0.8790    -3.8700     4.1140 hc         1 UNL       0.058700
     40 H19          1.5640    -5.4940     4.1840 hc         1 UNL       0.058700
     41 H20          9.9400    -1.4480    -8.0520 hc         1 UNL       0.038700
     42 H21         10.1190    -3.1200    -8.5650 hc         1 UNL       0.038700
     43 H22          7.2700    -1.3600    -3.3020 hc         1 UNL       0.047200
     44 H23          6.5660    -0.2430    -4.4500 hc         1 UNL       0.047200
     45 H24          3.7670    -2.5830    -2.3960 ha         1 UNL       0.122000
     46 H25         11.1930    -1.9480    -5.9410 hc         1 UNL       0.038700
     47 H26         11.2840    -3.6530    -6.3830 hc         1 UNL       0.038700
     48 H27          4.3450    -1.0230    -4.0740 ha         1 UNL       0.122000
     49 H28          1.8270    -3.3690     6.3830 hc         1 UNL       0.079700
     50 H29          2.5460    -4.9730     6.4420 hc         1 UNL       0.079700
     51 H30         12.5420    -1.3410    -7.9680 hc         1 UNL       0.032367
     52 H31         12.6490    -3.0570    -8.4030 hc         1 UNL       0.032367
     53 H32         13.4120    -2.4700    -6.9170 hc         1 UNL       0.032367
     54 H33         -0.3820    -5.4740     8.2100 ho         1 UNL       0.443000
@<TRIPOS>BOND
     1     1    20 1   
     2     1    54 1   
     3     2    20 2   
     4     3     4 1   
     5     3     5 1   
     6     3    21 1   
     7     3    22 1   
     8     4     6 1   
     9     4    23 1   
    10     4    24 1   
    11     5     7 1   
    12     5    25 1   
    13     5    26 1   
    14     6    11 1   
    15     6    27 1   
    16     6    28 1   
    17     7    12 1   
    18     7    29 1   
    19     7    30 1   
    20     8     9 1   
    21     8    10 1   
    22     8    31 1   
    23     8    32 1   
    24     9    13 1   
    25     9    33 1   
    26     9    34 1   
    27    10    14 1   
    28    10    35 1   
    29    10    36 1   
    30    11    15 1   
    31    11    37 1   
    32    11    38 1   
    33    12    18 1   
    34    12    39 1   
    35    12    40 1   
    36    13    16 1   
    37    13    41 1   
    38    13    42 1   
    39    14    17 1   
    40    14    43 1   
    41    14    44 1   
    42    15    17 2   
    43    15    45 1   
    44    16    19 1   
    45    16    46 1   
    46    16    47 1   
    47    17    48 1   
    48    18    20 1   
    49    18    49 1   
    50    18    50 1   
    51    19    51 1   
    52    19    52 1   
    53    19    53 1   
@<TRIPOS>SUBSTRUCTURE
     1 UNL         1 TEMP              0 ****  ****    0 ROOT
