@<TRIPOS>MOLECULE
Compound
53 52 1 0 1
SMALL
USER_CHARGES
@<TRIPOS>CRYSIN
   12.1453    10.9560    24.5934    90.0000    90.0000    90.0000 1 1
@<TRIPOS>ATOM
       1 O           19.0565    21.5600    20.7565 O             1 Compound  -0.853800
       2 O           17.1629    22.1536    21.7282 O             1 Compound  -0.853800
       3 C           18.8997    21.1137    28.1713 C             1 Compound  -0.079400
       4 C           18.2133    21.6505    29.4453 C             1 Compound  -0.080400
       5 C           18.2230    21.6679    26.9003 C             1 Compound  -0.078400
       6 C           18.8997    21.1137    30.7214 C             1 Compound  -0.076400
       7 C           18.9107    21.1429    25.6232 C             1 Compound  -0.078400
       8 C           18.2846    19.0927    36.2469 C             1 Compound  -0.079400
       9 C           18.3759    19.6673    37.6790 C             1 Compound  -0.078400
      10 C           17.3954    19.9802    35.3503 C             1 Compound  -0.077400
      11 C           18.2799    21.6987    32.0093 C             1 Compound  -0.050200
      12 C           18.2395    21.7100    24.3541 C             1 Compound  -0.065400
      13 C           19.1694    18.7578    38.6446 C             1 Compound  -0.077400
      14 C           17.3048    19.4221    33.9161 C             1 Compound  -0.045200
      15 C           16.8443    21.2486    32.2124 C             1 Compound  -0.159200
      16 C           20.6766    18.6905    38.3085 C             1 Compound  -0.081400
      17 C           16.4269    20.3003    33.0467 C             1 Compound  -0.190200
      18 C           18.9257    21.1890    23.0721 C             1 Compound  -0.194400
      19 C           21.4454    17.8686    39.3592 C             1 Compound  -0.092100
      20 C           18.3122    21.7664    21.8099 C             1 Compound   0.907600
      21 H           18.8533    20.0217    28.1642 H             1 Compound   0.034200
      22 H           19.9545    21.4001    28.1778 H             1 Compound   0.034200
      23 H           18.2511    22.7424    29.4452 H             1 Compound   0.038700
      24 H           17.1614    21.3549    29.4387 H             1 Compound   0.038700
      25 H           18.2641    22.7604    26.9127 H             1 Compound   0.036700
      26 H           17.1685    21.3781    26.8924 H             1 Compound   0.036700
      27 H           19.9604    21.3750    30.6946 H             1 Compound   0.038200
      28 H           18.8349    20.0228    30.7482 H             1 Compound   0.038200
      29 H           19.9662    21.4266    25.6351 H             1 Compound   0.025700
      30 H           18.8627    20.0506    25.6054 H             1 Compound   0.025700
      31 H           17.8694    18.0826    36.2843 H             1 Compound   0.039200
      32 H           19.2813    19.0261    35.8064 H             1 Compound   0.039200
      33 H           17.3653    19.7893    38.0757 H             1 Compound   0.038700
      34 H           18.8317    20.6605    37.6523 H             1 Compound   0.038700
      35 H           16.3921    20.0447    35.7783 H             1 Compound   0.040200
      36 H           17.8058    20.9927    35.3192 H             1 Compound   0.040200
      37 H           18.3173    22.7900    31.9711 H             1 Compound   0.043700
      38 H           18.9009    21.4058    32.8579 H             1 Compound   0.043700
      39 H           17.1836    21.4254    24.3445 H             1 Compound   0.043700
      40 H           18.2871    22.8014    24.3719 H             1 Compound   0.043700
      41 H           18.7425    17.7515    38.6369 H             1 Compound   0.037200
      42 H           19.0510    19.1474    39.6582 H             1 Compound   0.037200
      43 H           18.3087    19.3338    33.4946 H             1 Compound   0.045200
      44 H           16.8891    18.4112    33.9401 H             1 Compound   0.045200
      45 H           16.1037    21.8002    31.6384 H             1 Compound   0.128000
      46 H           20.8260    18.2348    37.3277 H             1 Compound   0.040700
      47 H           21.0910    19.7010    38.2707 H             1 Compound   0.040700
      48 H           15.3617    20.0923    33.1113 H             1 Compound   0.119000
      49 H           18.8583    20.0988    23.0306 H             1 Compound   0.018700
      50 H           19.9879    21.4469    23.1004 H             1 Compound   0.018700
      51 H           21.0651    16.8454    39.4028 H             1 Compound   0.031033
      52 H           21.3476    18.3185    40.3500 H             1 Compound   0.031033
      53 H           22.5070    17.8295    39.1050 H             1 Compound   0.031033
@<TRIPOS>BOND
       1        1       20 1
       2        2       20 1
       3        3        4 1
       4        3        5 1
       5        3       21 1
       6        3       22 1
       7        4        6 1
       8        4       23 1
       9        4       24 1
      10        5        7 1
      11        5       25 1
      12        5       26 1
      13        6       11 1
      14        6       27 1
      15        6       28 1
      16        7       12 1
      17        7       29 1
      18        7       30 1
      19        8        9 1
      20        8       10 1
      21        8       31 1
      22        8       32 1
      23        9       13 1
      24        9       33 1
      25        9       34 1
      26       10       14 1
      27       10       35 1
      28       10       36 1
      29       11       15 1
      30       11       37 1
      31       11       38 1
      32       12       18 1
      33       12       39 1
      34       12       40 1
      35       13       16 1
      36       13       41 1
      37       13       42 1
      38       14       17 1
      39       14       43 1
      40       14       44 1
      41       15       17 1
      42       15       45 1
      43       16       19 1
      44       16       46 1
      45       16       47 1
      46       17       48 1
      47       18       20 1
      48       18       49 1
      49       18       50 1
      50       19       51 1
      51       19       52 1
      52       19       53 1
@<TRIPOS>SUBSTRUCTURE
       1 Compound        1 RESIDUE    0 **** ROOT      0
