@<TRIPOS>MOLECULE
minimized-ase-slab.bgf
 433 0 0 0 0
SMALL
GASTEIGER

@<TRIPOS>ATOM
      1 ZN          0.4236   -0.6778    4.0510 Zn      1  UNL1        0.0000
      2 S           1.4796    2.0241    4.0536 S.3     2  UNL2        0.0000
      3 ZN          3.6643    1.5809    5.8299 Zn      3  UNL3        0.0000
      4 S           5.8652   -0.2304    5.8301 S.3     4  UNL4        0.0000
      5 ZN          7.1880    0.4745    8.2341 Zn      5  UNL5        0.0000
      6 S           2.3419    0.8705    8.2372 S.3     6  UNL6        0.0000
      7 ZN          3.3765    0.4709   10.8184 Zn      7  UNL7        0.0000
      8 S           6.1539    0.8756   10.8221 S.3     8  UNL8        0.0000
      9 ZN          7.4734    1.5813   13.2262 Zn      9  UNL9        0.0000
     10 S           2.0558   -0.2313   13.2271 S.3    10  UNL10       0.0000
     11 ZN          4.2326   -0.6774   15.0055 Zn     11  UNL11       0.0000
     12 S           5.2925    2.0237   15.0031 S.3    12  UNL12       0.0000
     13 ZN          0.4236    4.7122    4.0510 Zn     13  UNL13       0.0000
     14 S           1.4796    7.4141    4.0536 S.3    14  UNL14       0.0000
     15 ZN          3.6643    6.9709    5.8299 Zn     15  UNL15       0.0000
     16 S           5.8652    5.1596    5.8300 S.3    16  UNL16       0.0000
     17 ZN          7.1880    5.8645    8.2342 Zn     17  UNL17       0.0000
     18 S           2.3419    6.2605    8.2372 S.3    18  UNL18       0.0000
     19 ZN          3.3765    5.8609   10.8184 Zn     19  UNL19       0.0000
     20 S           6.1539    6.2656   10.8221 S.3    20  UNL20       0.0000
     21 ZN          7.4735    6.9713   13.2262 Zn     21  UNL21       0.0000
     22 S           2.0558    5.1587   13.2270 S.3    22  UNL22       0.0000
     23 ZN          4.2327    4.7126   15.0055 Zn     23  UNL23       0.0000
     24 S           5.2925    7.4137   15.0031 S.3    24  UNL24       0.0000
     25 ZN          0.4236   10.1022    4.0510 Zn     25  UNL25       0.0000
     26 S           1.4796   12.8041    4.0536 S.3    26  UNL26       0.0000
     27 ZN          3.6643   12.3609    5.8299 Zn     27  UNL27       0.0000
     28 S           5.8652   10.5496    5.8300 S.3    28  UNL28       0.0000
     29 ZN          7.1880   11.2545    8.2341 Zn     29  UNL29       0.0000
     30 S           2.3419   11.6505    8.2372 S.3    30  UNL30       0.0000
     31 ZN          3.3765   11.2509   10.8184 Zn     31  UNL31       0.0000
     32 S           6.1539   11.6556   10.8221 S.3    32  UNL32       0.0000
     33 ZN          7.4735   12.3613   13.2262 Zn     33  UNL33       0.0000
     34 S           2.0558   10.5487   13.2271 S.3    34  UNL34       0.0000
     35 ZN          4.2327   10.1026   15.0055 Zn     35  UNL35       0.0000
     36 S           5.2925   12.8038   15.0031 S.3    36  UNL36       0.0000
     37 ZN          0.4236   15.4922    4.0510 Zn     37  UNL37       0.0000
     38 S           1.4796   18.1941    4.0536 S.3    38  UNL38       0.0000
     39 ZN          3.6643   17.7509    5.8298 Zn     39  UNL39       0.0000
     40 S           5.8652   15.9396    5.8301 S.3    40  UNL40       0.0000
     41 ZN          7.1880   16.6445    8.2340 Zn     41  UNL41       0.0000
     42 S           2.3419   17.0405    8.2373 S.3    42  UNL42       0.0000
     43 ZN          3.3765   16.6409   10.8183 Zn     43  UNL43       0.0000
     44 S           6.1539   17.0456   10.8223 S.3    44  UNL44       0.0000
     45 ZN          7.4735   17.7513   13.2261 Zn     45  UNL45       0.0000
     46 S           2.0558   15.9387   13.2271 S.3    46  UNL46       0.0000
     47 ZN          4.2327   15.4926   15.0055 Zn     47  UNL47       0.0000
     48 S           5.2925   18.1938   15.0031 S.3    48  UNL48       0.0000
     49 ZN          0.4236   20.8822    4.0510 Zn     49  UNL49       0.0000
     50 S           1.4796   23.5841    4.0536 S.3    50  UNL50       0.0000
     51 ZN          3.6643   23.1409    5.8298 Zn     51  UNL51       0.0000
     52 S           5.8652   21.3296    5.8301 S.3    52  UNL52       0.0000
     53 ZN          7.1880   22.0345    8.2340 Zn     53  UNL53       0.0000
     54 S           2.3419   22.4305    8.2373 S.3    54  UNL54       0.0000
     55 ZN          3.3765   22.0310   10.8183 Zn     55  UNL55       0.0000
     56 S           6.1539   22.4356   10.8223 S.3    56  UNL56       0.0000
     57 ZN          7.4734   23.1413   13.2262 Zn     57  UNL57       0.0000
     58 S           2.0558   21.3287   13.2271 S.3    58  UNL58       0.0000
     59 ZN          4.2326   20.8826   15.0055 Zn     59  UNL59       0.0000
     60 S           5.2925   23.5837   15.0032 S.3    60  UNL60       0.0000
     61 ZN          0.4236   26.2722    4.0510 Zn     61  UNL61       0.0000
     62 S           1.4796   28.9741    4.0536 S.3    62  UNL62       0.0000
     63 ZN          3.6643   28.5309    5.8299 Zn     63  UNL63       0.0000
     64 S           5.8652   26.7196    5.8301 S.3    64  UNL64       0.0000
     65 ZN          7.1880   27.4245    8.2340 Zn     65  UNL65       0.0000
     66 S           2.3419   27.8205    8.2373 S.3    66  UNL66       0.0000
     67 ZN          3.3765   27.4210   10.8183 Zn     67  UNL67       0.0000
     68 S           6.1539   27.8256   10.8222 S.3    68  UNL68       0.0000
     69 ZN          7.4734   28.5313   13.2262 Zn     69  UNL69       0.0000
     70 S           2.0558   26.7186   13.2271 S.3    70  UNL70       0.0000
     71 ZN          4.2326   26.2726   15.0055 Zn     71  UNL71       0.0000
     72 S           5.2925   28.9737   15.0031 S.3    72  UNL72       0.0000
     73 ZN          8.0456   -0.6779    4.0515 Zn     73  UNL73       0.0000
     74 S           9.1033    2.0236    4.0537 S.3    74  UNL74       0.0000
     75 ZN         11.2854    1.5814    5.8290 Zn     75  UNL75       0.0000
     76 S          13.4903   -0.2308    5.8296 S.3    76  UNL76       0.0000
     77 ZN         14.8084    0.4746    8.2353 Zn     77  UNL77       0.0000
     78 S           9.9654    0.8700    8.2395 S.3    78  UNL78       0.0000
     79 ZN         10.9994    0.4716   10.8158 Zn     79  UNL79       0.0000
     80 S          13.7764    0.8752   10.8207 S.3    80  UNL80       0.0000
     81 ZN         15.0972    1.5810   13.2264 Zn     81  UNL81       0.0000
     82 S           9.6767   -0.2312   13.2283 S.3    82  UNL82       0.0000
     83 ZN         11.8562   -0.6778   15.0059 Zn     83  UNL83       0.0000
     84 S          12.9143    2.0237   15.0035 S.3    84  UNL84       0.0000
     85 ZN          8.0456    4.7121    4.0515 Zn     85  UNL85       0.0000
     86 S           9.1033    7.4136    4.0538 S.3    86  UNL86       0.0000
     87 ZN         11.2854    6.9714    5.8290 Zn     87  UNL87       0.0000
     88 S          13.4903    5.1592    5.8296 S.3    88  UNL88       0.0000
     89 ZN         14.8084    5.8646    8.2354 Zn     89  UNL89       0.0000
     90 S           9.9654    6.2600    8.2395 S.3    90  UNL90       0.0000
     91 ZN         10.9994    5.8616   10.8158 Zn     91  UNL91       0.0000
     92 S          13.7764    6.2652   10.8207 S.3    92  UNL92       0.0000
     93 ZN         15.0972    6.9709   13.2264 Zn     93  UNL93       0.0000
     94 S           9.6767    5.1588   13.2282 S.3    94  UNL94       0.0000
     95 ZN         11.8562    4.7122   15.0059 Zn     95  UNL95       0.0000
     96 S          12.9143    7.4137   15.0035 S.3    96  UNL96       0.0000
     97 ZN          8.0456   10.1021    4.0515 Zn     97  UNL97       0.0000
     98 S           9.1033   12.8036    4.0537 S.3    98  UNL98       0.0000
     99 ZN         11.2854   12.3615    5.8290 Zn     99  UNL99       0.0000
    100 S          13.4903   10.5492    5.8296 S.3   100  UNL100      0.0000
    101 ZN         14.8084   11.2546    8.2353 Zn    101  UNL101      0.0000
    102 S           9.9654   11.6500    8.2396 S.3   102  UNL102      0.0000
    103 ZN         10.9994   11.2516   10.8158 Zn    103  UNL103      0.0000
    104 S          13.7764   11.6552   10.8207 S.3   104  UNL104      0.0000
    105 ZN         15.0972   12.3609   13.2264 Zn    105  UNL105      0.0000
    106 S           9.6767   10.5488   13.2283 S.3   106  UNL106      0.0000
    107 ZN         11.8562   10.1022   15.0059 Zn    107  UNL107      0.0000
    108 S          12.9143   12.8037   15.0035 S.3   108  UNL108      0.0000
    109 ZN          8.0456   15.4921    4.0515 Zn    109  UNL109      0.0000
    110 S           9.1033   18.1936    4.0537 S.3   110  UNL110      0.0000
    111 ZN         11.2854   17.7515    5.8290 Zn    111  UNL111      0.0000
    112 S          13.4903   15.9392    5.8296 S.3   112  UNL112      0.0000
    113 ZN         14.8084   16.6446    8.2352 Zn    113  UNL113      0.0000
    114 S           9.9654   17.0400    8.2396 S.3   114  UNL114      0.0000
    115 ZN         10.9994   16.6416   10.8157 Zn    115  UNL115      0.0000
    116 S          13.7764   17.0452   10.8208 S.3   116  UNL116      0.0000
    117 ZN         15.0972   17.7509   13.2264 Zn    117  UNL117      0.0000
    118 S           9.6767   15.9388   13.2283 S.3   118  UNL118      0.0000
    119 ZN         11.8562   15.4922   15.0060 Zn    119  UNL119      0.0000
    120 S          12.9143   18.1937   15.0035 S.3   120  UNL120      0.0000
    121 ZN          8.0456   20.8821    4.0515 Zn    121  UNL121      0.0000
    122 S           9.1033   23.5836    4.0537 S.3   122  UNL122      0.0000
    123 ZN         11.2854   23.1415    5.8290 Zn    123  UNL123      0.0000
    124 S          13.4903   21.3292    5.8297 S.3   124  UNL124      0.0000
    125 ZN         14.8084   22.0346    8.2352 Zn    125  UNL125      0.0000
    126 S           9.9654   22.4300    8.2397 S.3   126  UNL126      0.0000
    127 ZN         10.9994   22.0316   10.8157 Zn    127  UNL127      0.0000
    128 S          13.7764   22.4353   10.8209 S.3   128  UNL128      0.0000
    129 ZN         15.0972   23.1410   13.2264 Zn    129  UNL129      0.0000
    130 S           9.6767   21.3288   13.2283 S.3   130  UNL130      0.0000
    131 ZN         11.8562   20.8822   15.0060 Zn    131  UNL131      0.0000
    132 S          12.9143   23.5837   15.0035 S.3   132  UNL132      0.0000
    133 ZN          8.0456   26.2721    4.0515 Zn    133  UNL133      0.0000
    134 S           9.1033   28.9736    4.0537 S.3   134  UNL134      0.0000
    135 ZN         11.2854   28.5314    5.8290 Zn    135  UNL135      0.0000
    136 S          13.4903   26.7192    5.8296 S.3   136  UNL136      0.0000
    137 ZN         14.8084   27.4246    8.2352 Zn    137  UNL137      0.0000
    138 S           9.9654   27.8200    8.2396 S.3   138  UNL138      0.0000
    139 ZN         10.9994   27.4216   10.8157 Zn    139  UNL139      0.0000
    140 S          13.7764   27.8252   10.8208 S.3   140  UNL140      0.0000
    141 ZN         15.0972   28.5310   13.2264 Zn    141  UNL141      0.0000
    142 S           9.6767   26.7188   13.2283 S.3   142  UNL142      0.0000
    143 ZN         11.8562   26.2722   15.0059 Zn    143  UNL143      0.0000
    144 S          12.9143   28.9737   15.0035 S.3   144  UNL144      0.0000
    145 ZN         15.6668   -0.6774    4.0518 Zn    145  UNL145      0.0000
    146 S          16.7271    2.0235    4.0542 S.3   146  UNL146      0.0000
    147 ZN         18.9058    1.5817    5.8303 Zn    147  UNL147      0.0000
    148 S          21.1128   -0.2317    5.8278 S.3   148  UNL148      0.0000
    149 ZN         22.4307    0.4756    8.2406 Zn    149  UNL149      0.0000
    150 S          17.5901    0.8710    8.2357 S.3   150  UNL150      0.0000
    151 ZN         18.6219    0.4709   10.8195 Zn    151  UNL151      0.0000
    152 S          21.3995    0.8742   10.8150 S.3   152  UNL152      0.0000
    153 ZN         22.7207    1.5816   13.2287 Zn    153  UNL153      0.0000
    154 S          17.2991   -0.2306   13.2266 S.3   154  UNL154      0.0000
    155 ZN         19.4795   -0.6777   15.0060 Zn    155  UNL155      0.0000
    156 S          20.5367    2.0239   15.0036 S.3   156  UNL156      0.0000
    157 ZN         15.6668    4.7126    4.0518 Zn    157  UNL157      0.0000
    158 S          16.7271    7.4135    4.0542 S.3   158  UNL158      0.0000
    159 ZN         18.9057    6.9717    5.8303 Zn    159  UNL159      0.0000
    160 S          21.1128    5.1583    5.8278 S.3   160  UNL160      0.0000
    161 ZN         22.4307    5.8656    8.2407 Zn    161  UNL161      0.0000
    162 S          17.5900    6.2610    8.2357 S.3   162  UNL162      0.0000
    163 ZN         18.6219    5.8609   10.8195 Zn    163  UNL163      0.0000
    164 S          21.3995    6.2642   10.8150 S.3   164  UNL164      0.0000
    165 ZN         22.7207    6.9715   13.2287 Zn    165  UNL165      0.0000
    166 S          17.2991    5.1594   13.2266 S.3   166  UNL166      0.0000
    167 ZN         19.4795    4.7123   15.0060 Zn    167  UNL167      0.0000
    168 S          20.5367    7.4139   15.0036 S.3   168  UNL168      0.0000
    169 ZN         15.6668   10.1026    4.0518 Zn    169  UNL169      0.0000
    170 S          16.7272   12.8035    4.0541 S.3   170  UNL170      0.0000
    171 ZN         18.9057   12.3617    5.8302 Zn    171  UNL171      0.0000
    172 S          21.1128   10.5483    5.8278 S.3   172  UNL172      0.0000
    173 ZN         22.4307   11.2556    8.2406 Zn    173  UNL173      0.0000
    174 S          17.5901   11.6510    8.2357 S.3   174  UNL174      0.0000
    175 ZN         18.6219   11.2509   10.8195 Zn    175  UNL175      0.0000
    176 S          21.3995   11.6542   10.8150 S.3   176  UNL176      0.0000
    177 ZN         22.7207   12.3615   13.2287 Zn    177  UNL177      0.0000
    178 S          17.2991   10.5495   13.2266 S.3   178  UNL178      0.0000
    179 ZN         19.4795   10.1023   15.0060 Zn    179  UNL179      0.0000
    180 S          20.5367   12.8039   15.0036 S.3   180  UNL180      0.0000
    181 ZN         15.6668   15.4926    4.0518 Zn    181  UNL181      0.0000
    182 S          16.7272   18.1935    4.0541 S.3   182  UNL182      0.0000
    183 ZN         18.9057   17.7517    5.8302 Zn    183  UNL183      0.0000
    184 S          21.1128   15.9383    5.8279 S.3   184  UNL184      0.0000
    185 ZN         22.4307   16.6456    8.2406 Zn    185  UNL185      0.0000
    186 S          17.5901   17.0410    8.2358 S.3   186  UNL186      0.0000
    187 ZN         18.6219   16.6409   10.8194 Zn    187  UNL187      0.0000
    188 S          21.3995   17.0442   10.8151 S.3   188  UNL188      0.0000
    189 ZN         22.7207   17.7515   13.2287 Zn    189  UNL189      0.0000
    190 S          17.2991   15.9395   13.2266 S.3   190  UNL190      0.0000
    191 ZN         19.4795   15.4923   15.0060 Zn    191  UNL191      0.0000
    192 S          20.5367   18.1939   15.0036 S.3   192  UNL192      0.0000
    193 ZN         15.6668   20.8826    4.0518 Zn    193  UNL193      0.0000
    194 S          16.7272   23.5835    4.0541 S.3   194  UNL194      0.0000
    195 ZN         18.9058   23.1417    5.8302 Zn    195  UNL195      0.0000
    196 S          21.1128   21.3283    5.8279 S.3   196  UNL196      0.0000
    197 ZN         22.4307   22.0356    8.2405 Zn    197  UNL197      0.0000
    198 S          17.5901   22.4310    8.2359 S.3   198  UNL198      0.0000
    199 ZN         18.6219   22.0309   10.8193 Zn    199  UNL199      0.0000
    200 S          21.3995   22.4342   10.8151 S.3   200  UNL200      0.0000
    201 ZN         22.7207   23.1415   13.2286 Zn    201  UNL201      0.0000
    202 S          17.2991   21.3295   13.2266 S.3   202  UNL202      0.0000
    203 ZN         19.4795   20.8823   15.0060 Zn    203  UNL203      0.0000
    204 S          20.5367   23.5839   15.0036 S.3   204  UNL204      0.0000
    205 ZN         15.6668   26.2726    4.0518 Zn    205  UNL205      0.0000
    206 S          16.7271   28.9735    4.0541 S.3   206  UNL206      0.0000
    207 ZN         18.9058   28.5317    5.8302 Zn    207  UNL207      0.0000
    208 S          21.1128   26.7183    5.8279 S.3   208  UNL208      0.0000
    209 ZN         22.4307   27.4256    8.2406 Zn    209  UNL209      0.0000
    210 S          17.5901   27.8210    8.2358 S.3   210  UNL210      0.0000
    211 ZN         18.6219   27.4209   10.8194 Zn    211  UNL211      0.0000
    212 S          21.3995   27.8242   10.8151 S.3   212  UNL212      0.0000
    213 ZN         22.7207   28.5316   13.2287 Zn    213  UNL213      0.0000
    214 S          17.2991   26.7194   13.2266 S.3   214  UNL214      0.0000
    215 ZN         19.4795   26.2723   15.0060 Zn    215  UNL215      0.0000
    216 S          20.5367   28.9739   15.0036 S.3   216  UNL216      0.0000
    217 ZN         23.2890   -0.6774    4.0515 Zn    217  UNL217      0.0000
    218 S          24.3493    2.0236    4.0542 S.3   218  UNL218      0.0000
    219 ZN         26.5286    1.5811    5.8316 Zn    219  UNL219      0.0000
    220 S          28.7333   -0.2318    5.8259 S.3   220  UNL220      0.0000
    221 ZN         30.0547    0.4765    8.2445 Zn    221  UNL221      0.0000
    222 S          25.2112    0.8719    8.2294 S.3   222  UNL222      0.0000
    223 ZN         26.2457    0.4698   10.8260 Zn    223  UNL223      0.0000
    224 S          29.0214    0.8734   10.8112 S.3   224  UNL224      0.0000
    225 ZN         30.3434    1.5823   13.2308 Zn    225  UNL225      0.0000
    226 S          24.9219   -0.2301   13.2248 S.3   226  UNL226      0.0000
    227 ZN         27.1021   -0.6776   15.0062 Zn    227  UNL227      0.0000
    228 S          28.1596    2.0239   15.0039 S.3   228  UNL228      0.0000
    229 ZN         23.2890    4.7126    4.0515 Zn    229  UNL229      0.0000
    230 S          24.3493    7.4135    4.0541 S.3   230  UNL230      0.0000
    231 ZN         26.5286    6.9710    5.8316 Zn    231  UNL231      0.0000
    232 S          28.7333    5.1582    5.8258 S.3   232  UNL232      0.0000
    233 ZN         30.0547    5.8665    8.2446 Zn    233  UNL233      0.0000
    234 S          25.2112    6.2619    8.2293 S.3   234  UNL234      0.0000
    235 ZN         26.2457    5.8598   10.8261 Zn    235  UNL235      0.0000
    236 S          29.0214    6.2634   10.8112 S.3   236  UNL236      0.0000
    237 ZN         30.3434    6.9723   13.2308 Zn    237  UNL237      0.0000
    238 S          24.9218    5.1599   13.2247 S.3   238  UNL238      0.0000
    239 ZN         27.1021    4.7123   15.0062 Zn    239  UNL239      0.0000
    240 S          28.1596    7.4139   15.0039 S.3   240  UNL240      0.0000
    241 ZN         23.2890   10.1026    4.0515 Zn    241  UNL241      0.0000
    242 S          24.3493   12.8035    4.0542 S.3   242  UNL242      0.0000
    243 ZN         26.5286   12.3611    5.8316 Zn    243  UNL243      0.0000
    244 S          28.7333   10.5482    5.8258 S.3   244  UNL244      0.0000
    245 ZN         30.0547   11.2565    8.2445 Zn    245  UNL245      0.0000
    246 S          25.2112   11.6519    8.2294 S.3   246  UNL246      0.0000
    247 ZN         26.2457   11.2498   10.8260 Zn    247  UNL247      0.0000
    248 S          29.0214   11.6534   10.8112 S.3   248  UNL248      0.0000
    249 ZN         30.3434   12.3622   13.2308 Zn    249  UNL249      0.0000
    250 S          24.9218   10.5499   13.2248 S.3   250  UNL250      0.0000
    251 ZN         27.1021   10.1023   15.0062 Zn    251  UNL251      0.0000
    252 S          28.1596   12.8040   15.0039 S.3   252  UNL252      0.0000
    253 ZN         23.2890   15.4927    4.0515 Zn    253  UNL253      0.0000
    254 S          24.3493   18.1935    4.0542 S.3   254  UNL254      0.0000
    255 ZN         26.5286   17.7511    5.8316 Zn    255  UNL255      0.0000
    256 S          28.7334   15.9382    5.8259 S.3   256  UNL256      0.0000
    257 ZN         30.0547   16.6465    8.2445 Zn    257  UNL257      0.0000
    258 S          25.2112   17.0419    8.2295 S.3   258  UNL258      0.0000
    259 ZN         26.2457   16.6398   10.8259 Zn    259  UNL259      0.0000
    260 S          29.0214   17.0434   10.8113 S.3   260  UNL260      0.0000
    261 ZN         30.3434   17.7522   13.2307 Zn    261  UNL261      0.0000
    262 S          24.9218   15.9399   13.2248 S.3   262  UNL262      0.0000
    263 ZN         27.1021   15.4923   15.0062 Zn    263  UNL263      0.0000
    264 S          28.1596   18.1939   15.0038 S.3   264  UNL264      0.0000
    265 ZN         23.2890   20.8826    4.0515 Zn    265  UNL265      0.0000
    266 S          24.3493   23.5835    4.0542 S.3   266  UNL266      0.0000
    267 ZN         26.5286   23.1411    5.8316 Zn    267  UNL267      0.0000
    268 S          28.7334   21.3282    5.8259 S.3   268  UNL268      0.0000
    269 ZN         30.0547   22.0365    8.2445 Zn    269  UNL269      0.0000
    270 S          25.2112   22.4319    8.2295 S.3   270  UNL270      0.0000
    271 ZN         26.2457   22.0298   10.8259 Zn    271  UNL271      0.0000
    272 S          29.0214   22.4334   10.8113 S.3   272  UNL272      0.0000
    273 ZN         30.3434   23.1423   13.2307 Zn    273  UNL273      0.0000
    274 S          24.9218   21.3299   13.2248 S.3   274  UNL274      0.0000
    275 ZN         27.1021   20.8823   15.0062 Zn    275  UNL275      0.0000
    276 S          28.1596   23.5839   15.0038 S.3   276  UNL276      0.0000
    277 ZN         23.2890   26.2726    4.0515 Zn    277  UNL277      0.0000
    278 S          24.3493   28.9736    4.0542 S.3   278  UNL278      0.0000
    279 ZN         26.5286   28.5310    5.8316 Zn    279  UNL279      0.0000
    280 S          28.7333   26.7182    5.8259 S.3   280  UNL280      0.0000
    281 ZN         30.0547   27.4265    8.2445 Zn    281  UNL281      0.0000
    282 S          25.2112   27.8219    8.2295 S.3   282  UNL282      0.0000
    283 ZN         26.2457   27.4198   10.8259 Zn    283  UNL283      0.0000
    284 S          29.0214   27.8234   10.8113 S.3   284  UNL284      0.0000
    285 ZN         30.3433   28.5323   13.2308 Zn    285  UNL285      0.0000
    286 S          24.9218   26.7199   13.2248 S.3   286  UNL286      0.0000
    287 ZN         27.1021   26.2723   15.0062 Zn    287  UNL287      0.0000
    288 S          28.1596   28.9739   15.0038 S.3   288  UNL288      0.0000
    289 ZN         30.9125   -0.6776    4.0509 Zn    289  UNL289      0.0000
    290 S          31.9709    2.0238    4.0537 S.3   290  UNL290      0.0000
    291 ZN         34.1527    1.5805    5.8322 Zn    291  UNL291      0.0000
    292 S          36.3548   -0.2313    5.8260 S.3   292  UNL292      0.0000
    293 ZN         37.6780    0.4766    8.2443 Zn    293  UNL293      0.0000
    294 S          32.8320    0.8722    8.2266 S.3   294  UNL294      0.0000
    295 ZN         33.8683    0.4693   10.8289 Zn    295  UNL295      0.0000
    296 S          36.6448    0.8736   10.8119 S.3   296  UNL296      0.0000
    297 ZN         37.9645    1.5826   13.2304 Zn    297  UNL297      0.0000
    298 S          32.5457   -0.2303   13.2245 S.3   298  UNL298      0.0000
    299 ZN         34.7239   -0.6775   15.0061 Zn    299  UNL299      0.0000
    300 S          35.7833    2.0238   15.0036 S.3   300  UNL300      0.0000
    301 ZN         30.9125    4.7124    4.0509 Zn    301  UNL301      0.0000
    302 S          31.9709    7.4138    4.0537 S.3   302  UNL302      0.0000
    303 ZN         34.1527    6.9705    5.8322 Zn    303  UNL303      0.0000
    304 S          36.3548    5.1587    5.8260 S.3   304  UNL304      0.0000
    305 ZN         37.6780    5.8666    8.2444 Zn    305  UNL305      0.0000
    306 S          32.8320    6.2622    8.2265 S.3   306  UNL306      0.0000
    307 ZN         33.8683    5.8593   10.8290 Zn    307  UNL307      0.0000
    308 S          36.6448    6.2636   10.8119 S.3   308  UNL308      0.0000
    309 ZN         37.9646    6.9726   13.2304 Zn    309  UNL309      0.0000
    310 S          32.5456    5.1597   13.2245 S.3   310  UNL310      0.0000
    311 ZN         34.7239    4.7125   15.0061 Zn    311  UNL311      0.0000
    312 S          35.7833    7.4138   15.0036 S.3   312  UNL312      0.0000
    313 ZN         30.9125   10.1024    4.0509 Zn    313  UNL313      0.0000
    314 S          31.9709   12.8037    4.0537 S.3   314  UNL314      0.0000
    315 ZN         34.1527   12.3605    5.8322 Zn    315  UNL315      0.0000
    316 S          36.3548   10.5487    5.8260 S.3   316  UNL316      0.0000
    317 ZN         37.6780   11.2566    8.2443 Zn    317  UNL317      0.0000
    318 S          32.8320   11.6522    8.2266 S.3   318  UNL318      0.0000
    319 ZN         33.8683   11.2493   10.8289 Zn    319  UNL319      0.0000
    320 S          36.6448   11.6536   10.8119 S.3   320  UNL320      0.0000
    321 ZN         37.9646   12.3626   13.2304 Zn    321  UNL321      0.0000
    322 S          32.5456   10.5498   13.2245 S.3   322  UNL322      0.0000
    323 ZN         34.7239   10.1025   15.0061 Zn    323  UNL323      0.0000
    324 S          35.7833   12.8038   15.0036 S.3   324  UNL324      0.0000
    325 ZN         30.9125   15.4924    4.0510 Zn    325  UNL325      0.0000
    326 S          31.9709   18.1937    4.0537 S.3   326  UNL326      0.0000
    327 ZN         34.1527   17.7505    5.8322 Zn    327  UNL327      0.0000
    328 S          36.3548   15.9387    5.8260 S.3   328  UNL328      0.0000
    329 ZN         37.6780   16.6466    8.2443 Zn    329  UNL329      0.0000
    330 S          32.8320   17.0422    8.2267 S.3   330  UNL330      0.0000
    331 ZN         33.8682   16.6393   10.8288 Zn    331  UNL331      0.0000
    332 S          36.6448   17.0437   10.8119 S.3   332  UNL332      0.0000
    333 ZN         37.9645   17.7526   13.2303 Zn    333  UNL333      0.0000
    334 S          32.5456   15.9398   13.2245 S.3   334  UNL334      0.0000
    335 ZN         34.7239   15.4925   15.0061 Zn    335  UNL335      0.0000
    336 S          35.7833   18.1938   15.0036 S.3   336  UNL336      0.0000
    337 ZN         30.9125   20.8824    4.0510 Zn    337  UNL337      0.0000
    338 S          31.9709   23.5838    4.0537 S.3   338  UNL338      0.0000
    339 ZN         34.1527   23.1405    5.8322 Zn    339  UNL339      0.0000
    340 S          36.3548   21.3287    5.8261 S.3   340  UNL340      0.0000
    341 ZN         37.6780   22.0366    8.2443 Zn    341  UNL341      0.0000
    342 S          32.8320   22.4322    8.2268 S.3   342  UNL342      0.0000
    343 ZN         33.8682   22.0293   10.8287 Zn    343  UNL343      0.0000
    344 S          36.6448   22.4337   10.8120 S.3   344  UNL344      0.0000
    345 ZN         37.9645   23.1426   13.2303 Zn    345  UNL345      0.0000
    346 S          32.5456   21.3298   13.2245 S.3   346  UNL346      0.0000
    347 ZN         34.7239   20.8825   15.0061 Zn    347  UNL347      0.0000
    348 S          35.7833   23.5838   15.0036 S.3   348  UNL348      0.0000
    349 ZN         30.9125   26.2724    4.0510 Zn    349  UNL349      0.0000
    350 S          31.9709   28.9738    4.0537 S.3   350  UNL350      0.0000
    351 ZN         34.1527   28.5305    5.8322 Zn    351  UNL351      0.0000
    352 S          36.3548   26.7187    5.8260 S.3   352  UNL352      0.0000
    353 ZN         37.6780   27.4266    8.2443 Zn    353  UNL353      0.0000
    354 S          32.8320   27.8222    8.2267 S.3   354  UNL354      0.0000
    355 ZN         33.8682   27.4193   10.8288 Zn    355  UNL355      0.0000
    356 S          36.6448   27.8236   10.8119 S.3   356  UNL356      0.0000
    357 ZN         37.9645   28.5326   13.2304 Zn    357  UNL357      0.0000
    358 S          32.5456   26.7197   13.2245 S.3   358  UNL358      0.0000
    359 ZN         34.7239   26.2725   15.0061 Zn    359  UNL359      0.0000
    360 S          35.7833   28.9737   15.0036 S.3   360  UNL360      0.0000
    361 ZN         38.5361   -0.6777    4.0508 Zn    361  UNL361      0.0000
    362 S          39.5928    2.0240    4.0537 S.3   362  UNL362      0.0000
    363 ZN         41.7767    1.5804    5.8318 Zn    363  UNL363      0.0000
    364 S          43.9772   -0.2306    5.8283 S.3   364  UNL364      0.0000
    365 ZN         -0.4345    0.4757    8.2398 Zn    365  UNL365      0.0000
    366 S          40.4548    0.8717    8.2305 S.3   366  UNL366      0.0000
    367 ZN         41.4894    0.4698   10.8251 Zn    367  UNL367      0.0000
    368 S          44.2681    0.8747   10.8166 S.3   368  UNL368      0.0000
    369 ZN         -0.1498    1.5822   13.2280 Zn    369  UNL369      0.0000
    370 S          40.1696   -0.2308   13.2253 S.3   370  UNL370      0.0000
    371 ZN         42.3457   -0.6773   15.0056 Zn    371  UNL371      0.0000
    372 S          43.4064    2.0236   15.0030 S.3   372  UNL372      0.0000
    373 ZN         38.5361    4.7123    4.0508 Zn    373  UNL373      0.0000
    374 S          39.5928    7.4140    4.0537 S.3   374  UNL374      0.0000
    375 ZN         41.7767    6.9705    5.8318 Zn    375  UNL375      0.0000
    376 S          43.9772    5.1594    5.8283 S.3   376  UNL376      0.0000
    377 ZN         -0.4345    5.8657    8.2399 Zn    377  UNL377      0.0000
    378 S          40.4548    6.2617    8.2305 S.3   378  UNL378      0.0000
    379 ZN         41.4894    5.8598   10.8252 Zn    379  UNL379      0.0000
    380 S          44.2681    6.2647   10.8165 S.3   380  UNL380      0.0000
    381 ZN         -0.1498    6.9722   13.2280 Zn    381  UNL381      0.0000
    382 S          40.1696    5.1592   13.2253 S.3   382  UNL382      0.0000
    383 ZN         42.3457    4.7127   15.0056 Zn    383  UNL383      0.0000
    384 S          43.4064    7.4136   15.0030 S.3   384  UNL384      0.0000
    385 ZN         38.5361   10.1023    4.0508 Zn    385  UNL385      0.0000
    386 S          39.5928   12.8040    4.0537 S.3   386  UNL386      0.0000
    387 ZN         41.7767   12.3605    5.8318 Zn    387  UNL387      0.0000
    388 S          43.9772   10.5494    5.8283 S.3   388  UNL388      0.0000
    389 ZN         -0.4345   11.2557    8.2398 Zn    389  UNL389      0.0000
    390 S          40.4548   11.6517    8.2305 S.3   390  UNL390      0.0000
    391 ZN         41.4894   11.2498   10.8251 Zn    391  UNL391      0.0000
    392 S          44.2681   11.6547   10.8166 S.3   392  UNL392      0.0000
    393 ZN         -0.1498   12.3621   13.2280 Zn    393  UNL393      0.0000
    394 S          40.1696   10.5492   13.2253 S.3   394  UNL394      0.0000
    395 ZN         42.3457   10.1027   15.0056 Zn    395  UNL395      0.0000
    396 S          43.4064   12.8037   15.0030 S.3   396  UNL396      0.0000
    397 ZN         38.5361   15.4923    4.0508 Zn    397  UNL397      0.0000
    398 S          39.5928   18.1940    4.0537 S.3   398  UNL398      0.0000
    399 ZN         41.7767   17.7505    5.8318 Zn    399  UNL399      0.0000
    400 S          43.9772   15.9394    5.8283 S.3   400  UNL400      0.0000
    401 ZN         -0.4345   16.6457    8.2397 Zn    401  UNL401      0.0000
    402 S          40.4548   17.0417    8.2306 S.3   402  UNL402      0.0000
    403 ZN         41.4894   16.6398   10.8250 Zn    403  UNL403      0.0000
    404 S          44.2681   17.0447   10.8166 S.3   404  UNL404      0.0000
    405 ZN         -0.1499   17.7521   13.2280 Zn    405  UNL405      0.0000
    406 S          40.1696   15.9392   13.2253 S.3   406  UNL406      0.0000
    407 ZN         42.3457   15.4927   15.0056 Zn    407  UNL407      0.0000
    408 S          43.4064   18.1937   15.0030 S.3   408  UNL408      0.0000
    409 ZN         38.5361   20.8823    4.0508 Zn    409  UNL409      0.0000
    410 S          39.5928   23.5840    4.0537 S.3   410  UNL410      0.0000
    411 ZN         41.7767   23.1405    5.8318 Zn    411  UNL411      0.0000
    412 S          43.9772   21.3294    5.8283 S.3   412  UNL412      0.0000
    413 ZN         -0.4345   22.0357    8.2397 Zn    413  UNL413      0.0000
    414 S          40.4549   22.4317    8.2307 S.3   414  UNL414      0.0000
    415 ZN         41.4894   22.0299   10.8250 Zn    415  UNL415      0.0000
    416 S          44.2681   22.4347   10.8167 S.3   416  UNL416      0.0000
    417 ZN         -0.1499   23.1421   13.2280 Zn    417  UNL417      0.0000
    418 S          40.1696   21.3292   13.2253 S.3   418  UNL418      0.0000
    419 ZN         42.3457   20.8827   15.0056 Zn    419  UNL419      0.0000
    420 S          43.4064   23.5836   15.0030 S.3   420  UNL420      0.0000
    421 ZN         38.5361   26.2723    4.0508 Zn    421  UNL421      0.0000
    422 S          39.5928   28.9740    4.0537 S.3   422  UNL422      0.0000
    423 ZN         41.7767   28.5304    5.8318 Zn    423  UNL423      0.0000
    424 S          43.9772   26.7194    5.8283 S.3   424  UNL424      0.0000
    425 ZN         -0.4345   27.4257    8.2397 Zn    425  UNL425      0.0000
    426 S          40.4548   27.8217    8.2306 S.3   426  UNL426      0.0000
    427 ZN         41.4894   27.4199   10.8251 Zn    427  UNL427      0.0000
    428 S          44.2681   27.8247   10.8166 S.3   428  UNL428      0.0000
    429 ZN         -0.1499   28.5322   13.2280 Zn    429  UNL429      0.0000
    430 S          40.1696   26.7192   13.2253 S.3   430  UNL430      0.0000
    431 ZN         42.3457   26.2727   15.0056 Zn    431  UNL431      0.0000
    432 S          43.4064   28.9736   15.0030 S.3   432  UNL432      0.0000
    433 S          43.4064   28.9736   15.0030 S.3   433  UNL433      0.0000
@<TRIPOS>BOND
