@<TRIPOS>MOLECULE
Zn4 S4
 110 152 0 0 0
SMALL
GASTEIGER

@<TRIPOS>ATOM
      1 ZN          0.0000    0.0000    0.0000 Zn      1  UNL1        0.0000
      2 ZN          0.0000    0.0000    5.4503 Zn      1  UNL1        0.0000
      3 ZN          0.0000   10.9005    0.0000 Zn      1  UNL1        0.0000
      4 ZN          0.0000   10.9005    5.4503 Zn      1  UNL1        0.0000
      5 ZN         10.9005    0.0000    0.0000 Zn      1  UNL1        0.0000
      6 ZN         10.9005    0.0000    5.4503 Zn      1  UNL1        0.0000
      7 ZN         10.9005   10.9005    0.0000 Zn      1  UNL1        0.0000
      8 ZN         10.9005   10.9005    5.4503 Zn      1  UNL1        0.0000
      9 ZN          0.0000    5.4503    0.0000 Zn      1  UNL1        0.0000
     10 ZN          0.0000    5.4503    5.4503 Zn      1  UNL1        0.0000
     11 ZN         10.9005    5.4503    0.0000 Zn      1  UNL1        0.0000
     12 ZN         10.9005    5.4503    5.4503 Zn      1  UNL1        0.0000
     13 ZN          5.4503    0.0000    0.0000 Zn      1  UNL1        0.0000
     14 ZN          5.4503    0.0000    5.4503 Zn      1  UNL1        0.0000
     15 ZN          5.4503   10.9005    0.0000 Zn      1  UNL1        0.0000
     16 ZN          5.4503   10.9005    5.4503 Zn      1  UNL1        0.0000
     17 ZN          5.4503    5.4503    0.0000 Zn      1  UNL1        0.0000
     18 ZN          5.4503    5.4503    5.4503 Zn      1  UNL1        0.0000
     19 ZN          0.0000    2.7251    2.7251 Zn      1  UNL1        0.0000
     20 ZN         10.9005    2.7251    2.7251 Zn      1  UNL1        0.0000
     21 ZN          0.0000    8.1754    2.7251 Zn      1  UNL1        0.0000
     22 ZN         10.9005    8.1754    2.7251 Zn      1  UNL1        0.0000
     23 ZN          5.4503    2.7251    2.7251 Zn      1  UNL1        0.0000
     24 ZN          5.4503    8.1754    2.7251 Zn      1  UNL1        0.0000
     25 ZN          2.7251    0.0000    2.7251 Zn      1  UNL1        0.0000
     26 ZN          2.7251   10.9005    2.7251 Zn      1  UNL1        0.0000
     27 ZN          2.7251    5.4503    2.7251 Zn      1  UNL1        0.0000
     28 ZN          8.1754    0.0000    2.7251 Zn      1  UNL1        0.0000
     29 ZN          8.1754   10.9005    2.7251 Zn      1  UNL1        0.0000
     30 ZN          8.1754    5.4503    2.7251 Zn      1  UNL1        0.0000
     31 ZN          2.7251    2.7251    0.0000 Zn      1  UNL1        0.0000
     32 ZN          2.7251    2.7251    5.4503 Zn      1  UNL1        0.0000
     33 ZN          2.7251    8.1754    0.0000 Zn      1  UNL1        0.0000
     34 ZN          2.7251    8.1754    5.4503 Zn      1  UNL1        0.0000
     35 ZN          8.1754    2.7251    0.0000 Zn      1  UNL1        0.0000
     36 ZN          8.1754    2.7251    5.4503 Zn      1  UNL1        0.0000
     37 ZN          8.1754    8.1754    0.0000 Zn      1  UNL1        0.0000
     38 ZN          8.1754    8.1754    5.4503 Zn      1  UNL1        0.0000
     39 S           1.3626    1.3626    4.0877 S.3     1  UNL1        0.0000
     40 S           1.3626    6.8128    4.0877 S.3     1  UNL1        0.0000
     41 S           6.8128    1.3626    4.0877 S.3     1  UNL1        0.0000
     42 S           6.8128    6.8128    4.0877 S.3     1  UNL1        0.0000
     43 S           1.3626    4.0877    1.3626 S.3     1  UNL1        0.0000
     44 S           1.3626    9.5380    1.3626 S.3     1  UNL1        0.0000
     45 S           6.8128    4.0877    1.3626 S.3     1  UNL1        0.0000
     46 S           6.8128    9.5380    1.3626 S.3     1  UNL1        0.0000
     47 S           4.0877    1.3626    1.3626 S.3     1  UNL1        0.0000
     48 S           4.0877    6.8128    1.3626 S.3     1  UNL1        0.0000
     49 S           9.5380    1.3626    1.3626 S.3     1  UNL1        0.0000
     50 S           9.5380    6.8128    1.3626 S.3     1  UNL1        0.0000
     51 S           4.0877    4.0877    4.0877 S.3     1  UNL1        0.0000
     52 S           4.0877    9.5380    4.0877 S.3     1  UNL1        0.0000
     53 S           9.5380    4.0877    4.0877 S.3     1  UNL1        0.0000
     54 S           9.5380    9.5380    4.0877 S.3     1  UNL1        0.0000
     55 S          -1.3626   -1.3626   -1.3626 S.3     1  UNL1        0.0000
     56 S          -1.3626    1.3626    1.3626 S.3     1  UNL1        0.0000
     57 S           1.3626   -1.3626    1.3626 S.3     1  UNL1        0.0000
     58 S           1.3626    1.3626   -1.3626 S.3     1  UNL1        0.0000
     59 S          -1.3626   -1.3626    4.0877 S.3     1  UNL1        0.0000
     60 S          -1.3626    1.3626    6.8128 S.3     1  UNL1        0.0000
     61 S           1.3626   -1.3626    6.8128 S.3     1  UNL1        0.0000
     62 S          -1.3626    9.5380   -1.3626 S.3     1  UNL1        0.0000
     63 S          -1.3626   12.2631    1.3626 S.3     1  UNL1        0.0000
     64 S           1.3626   12.2631   -1.3626 S.3     1  UNL1        0.0000
     65 S          -1.3626    9.5380    4.0877 S.3     1  UNL1        0.0000
     66 S          -1.3626   12.2631    6.8128 S.3     1  UNL1        0.0000
     67 S           1.3626    9.5380    6.8128 S.3     1  UNL1        0.0000
     68 S           1.3626   12.2631    4.0877 S.3     1  UNL1        0.0000
     69 S           9.5380   -1.3626   -1.3626 S.3     1  UNL1        0.0000
     70 S          12.2631   -1.3626    1.3626 S.3     1  UNL1        0.0000
     71 S          12.2631    1.3626   -1.3626 S.3     1  UNL1        0.0000
     72 S           9.5380   -1.3626    4.0877 S.3     1  UNL1        0.0000
     73 S           9.5380    1.3626    6.8128 S.3     1  UNL1        0.0000
     74 S          12.2631   -1.3626    6.8128 S.3     1  UNL1        0.0000
     75 S          12.2631    1.3626    4.0877 S.3     1  UNL1        0.0000
     76 S           9.5380    9.5380   -1.3626 S.3     1  UNL1        0.0000
     77 S           9.5380   12.2631    1.3626 S.3     1  UNL1        0.0000
     78 S          12.2631    9.5380    1.3626 S.3     1  UNL1        0.0000
     79 S          12.2631   12.2631   -1.3626 S.3     1  UNL1        0.0000
     80 S           9.5380   12.2631    6.8128 S.3     1  UNL1        0.0000
     81 S          12.2631    9.5380    6.8128 S.3     1  UNL1        0.0000
     82 S          12.2631   12.2631    4.0877 S.3     1  UNL1        0.0000
     83 S          -1.3626    4.0877   -1.3626 S.3     1  UNL1        0.0000
     84 S          -1.3626    6.8128    1.3626 S.3     1  UNL1        0.0000
     85 S           1.3626    6.8128   -1.3626 S.3     1  UNL1        0.0000
     86 S          -1.3626    4.0877    4.0877 S.3     1  UNL1        0.0000
     87 S          -1.3626    6.8128    6.8128 S.3     1  UNL1        0.0000
     88 S           1.3626    4.0877    6.8128 S.3     1  UNL1        0.0000
     89 S           9.5380    4.0877   -1.3626 S.3     1  UNL1        0.0000
     90 S          12.2631    4.0877    1.3626 S.3     1  UNL1        0.0000
     91 S          12.2631    6.8128   -1.3626 S.3     1  UNL1        0.0000
     92 S           9.5380    6.8128    6.8128 S.3     1  UNL1        0.0000
     93 S          12.2631    4.0877    6.8128 S.3     1  UNL1        0.0000
     94 S          12.2631    6.8128    4.0877 S.3     1  UNL1        0.0000
     95 S           4.0877   -1.3626   -1.3626 S.3     1  UNL1        0.0000
     96 S           6.8128   -1.3626    1.3626 S.3     1  UNL1        0.0000
     97 S           6.8128    1.3626   -1.3626 S.3     1  UNL1        0.0000
     98 S           4.0877   -1.3626    4.0877 S.3     1  UNL1        0.0000
     99 S           4.0877    1.3626    6.8128 S.3     1  UNL1        0.0000
    100 S           6.8128   -1.3626    6.8128 S.3     1  UNL1        0.0000
    101 S           4.0877    9.5380   -1.3626 S.3     1  UNL1        0.0000
    102 S           4.0877   12.2631    1.3626 S.3     1  UNL1        0.0000
    103 S           6.8128   12.2631   -1.3626 S.3     1  UNL1        0.0000
    104 S           4.0877   12.2631    6.8128 S.3     1  UNL1        0.0000
    105 S           6.8128    9.5380    6.8128 S.3     1  UNL1        0.0000
    106 S           6.8128   12.2631    4.0877 S.3     1  UNL1        0.0000
    107 S           4.0877    4.0877   -1.3626 S.3     1  UNL1        0.0000
    108 S           6.8128    6.8128   -1.3626 S.3     1  UNL1        0.0000
    109 S           4.0877    6.8128    6.8128 S.3     1  UNL1        0.0000
    110 S           6.8128    4.0877    6.8128 S.3     1  UNL1        0.0000
@<TRIPOS>BOND
     1    85    33    1
     2    85     9    1
     3    95    13    1
     4    97    35    1
     5    97    13    1
     6    91    11    1
     7    76    37    1
     8    76     7    1
     9    83     9    1
    10   101    33    1
    11   101    15    1
    12    71     5    1
    13    69     5    1
    14    55     1    1
    15   103    15    1
    16    58    31    1
    17    58     1    1
    18    79     7    1
    19    89    35    1
    20    89    11    1
    21   107    31    1
    22   107    17    1
    23    62     3    1
    24   108    37    1
    25   108    17    1
    26    64     3    1
    27    37    46    1
    28    37    50    1
    29    35    45    1
    30    35    49    1
    31    33    44    1
    32    33    48    1
    33    31    47    1
    34    31    43    1
    35     1    56    1
    36     1    57    1
    37     3    44    1
    38     3    63    1
    39     5    49    1
    40     5    70    1
    41     7    78    1
    42     7    77    1
    43     9    43    1
    44     9    84    1
    45    15    46    1
    46    15   102    1
    47    11    50    1
    48    11    90    1
    49    13    47    1
    50    13    96    1
    51    17    45    1
    52    17    48    1
    53    45    23    1
    54    45    30    1
    55    44    26    1
    56    44    21    1
    57    46    24    1
    58    46    29    1
    59    47    23    1
    60    47    25    1
    61    48    24    1
    62    48    27    1
    63    49    28    1
    64    49    20    1
    65    50    30    1
    66    50    22    1
    67   102    26    1
    68    56    19    1
    69    57    25    1
    70    90    20    1
    71    43    27    1
    72    43    19    1
    73    84    21    1
    74    78    22    1
    75    77    29    1
    76    96    28    1
    77    24    52    1
    78    24    42    1
    79    23    51    1
    80    23    41    1
    81    25    39    1
    82    25    98    1
    83    26    68    1
    84    26    52    1
    85    27    51    1
    86    27    40    1
    87    28    72    1
    88    28    41    1
    89    29    54    1
    90    29   106    1
    91    30    53    1
    92    30    42    1
    93    22    54    1
    94    22    94    1
    95    21    65    1
    96    21    40    1
    97    20    75    1
    98    20    53    1
    99    19    86    1
   100    19    39    1
   101    68     4    1
   102    82     8    1
   103    72     6    1
   104    75     6    1
   105    86    10    1
   106    65     4    1
   107    59     2    1
   108    54    38    1
   109    54     8    1
   110    53    12    1
   111    53    36    1
   112    52    16    1
   113    52    34    1
   114    51    18    1
   115    51    32    1
   116    42    18    1
   117    42    38    1
   118    41    36    1
   119    41    14    1
   120    40    34    1
   121    40    10    1
   122    39     2    1
   123    39    32    1
   124    94    12    1
   125    98    14    1
   126   106    16    1
   127     2    60    1
   128     2    61    1
   129    12    93    1
   130    12    92    1
   131    16   104    1
   132    16   105    1
   133    18   110    1
   134    18   109    1
   135    32    99    1
   136    32    88    1
   137    34   109    1
   138    34    67    1
   139    36   110    1
   140    36    73    1
   141    14   100    1
   142    14    99    1
   143    38   105    1
   144    38    92    1
   145    10    88    1
   146    10    87    1
   147     8    81    1
   148     8    80    1
   149     6    73    1
   150     6    74    1
   151     4    66    1
   152     4    67    1
