@<TRIPOS>MOLECULE
C27H37NOS2.****
109 110 1 0 0 
SMALL
USER_CHARGES


@<TRIPOS>ATOM
  1 C      -13.5164     0.8513     0.7259 C.ar  1 <1>  -0.1317 
  2 H      -14.1963     0.3937     0.0548 H     1 <1>   0.1683 
  3 C      -13.2066     0.2387     1.9352 C.ar  1 <1>  -0.1317 
  4 C      -12.3102     0.8400     2.8160 C.ar  1 <1>  -0.1317 
  5 C      -11.7114     2.0659     2.5020 C.ar  1 <1>  -0.1251 
  6 C      -10.7387     2.8203     3.4314 C.3   1 <1>   0.2315 
  7 O       -9.6170     3.1302     2.5600 O.3   1 <1>  -0.9234 
  8 C      -11.3714     4.1675     3.8361 C.ar  1 <1>  -0.1251 
  9 C      -12.6296     4.1828     4.4470 C.ar  1 <1>  -0.1317 
 10 C      -13.2366     5.3824     4.8051 C.ar  1 <1>  -0.1317 
 11 C      -12.5932     6.5847     4.5373 C.ar  1 <1>   0.1020 
 12 O      -13.2456     7.7424     4.9051 O.3   1 <1>  -0.3481 
 13 C      -12.8032     9.0757     4.5897 C.3   1 <1>   0.1388 
 14 C      -13.8297    10.1144     5.0484 C.3   1 <1>  -0.1419 
 15 C      -13.3665    11.5492     4.7483 C.3   1 <1>  -0.1419 
 16 C      -14.4282    12.5641     5.1995 C.3   1 <1>  -0.1419 
 17 C      -13.9612    14.0030     4.9299 C.3   1 <1>  -0.1419 
 18 C      -15.0306    15.0126     5.3747 C.3   1 <1>  -0.1419 
 19 C      -14.5565    16.4543     5.1353 C.3   1 <1>  -0.1419 
 20 C      -15.6293    17.4601     5.5806 C.3   1 <1>  -0.1419 
 21 C      -15.1377    18.9032     5.3861 C.3   1 <1>  -0.1419 
 22 C      -16.1960    19.9177     5.8314 C.3   1 <1>   0.0897 
 23 S      -15.5095    21.5773     5.5984 S.3   1 <1>  -0.3965 
 24 C      -11.3463     6.5971     3.9125 C.ar  1 <1>  -0.1317 
 25 C      -10.7476     5.3908     3.5619 C.ar  1 <1>  -0.1317 
 26 C      -12.0297     2.6622     1.2805 C.ar  1 <1>  -0.1317 
 27 C      -12.9238     2.0648     0.3977 C.ar  1 <1>  -0.1317 
 28 H      -13.6500    -0.6898     2.1865 H     1 <1>   0.1683 
 29 H      -12.0841     0.3500     3.7227 H     1 <1>   0.1683 
 30 H      -13.1323     3.2687     4.6246 H     1 <1>   0.1683 
 31 H      -14.1876     5.3868     5.2691 H     1 <1>   0.1683 
 32 H      -11.8509     9.2550     5.0914 H     1 <1>   0.0996 
 33 H      -12.6663     9.1519     3.5094 H     1 <1>   0.0996 
 34 H      -14.7735     9.9146     4.5376 H     1 <1>   0.0996 
 35 H      -13.9879     9.9939     6.1218 H     1 <1>   0.0996 
 36 H      -12.4304    11.7458     5.2762 H     1 <1>   0.0996 
 37 H      -13.1946    11.6598     3.6749 H     1 <1>   0.0996 
 38 H      -15.3595    12.3776     4.6593 H     1 <1>   0.0996 
 39 H      -14.6164    12.4398     6.2687 H     1 <1>   0.0996 
 40 H      -13.0350    14.1915     5.4779 H     1 <1>   0.0996 
 41 H      -13.7667    14.1287     3.8623 H     1 <1>   0.0996 
 42 H      -15.9512    14.8354     4.8137 H     1 <1>   0.0996 
 43 H      -15.2390    14.8732     6.4381 H     1 <1>   0.0996 
 44 H      -13.6376    16.6308     5.6996 H     1 <1>   0.0996 
 45 H      -14.3445    16.5969     4.0730 H     1 <1>   0.0996 
 46 H      -16.5378    17.3029     4.9943 H     1 <1>   0.0996 
 47 H      -15.8611    17.2973     6.6359 H     1 <1>   0.0996 
 48 H      -14.2296    19.0639     5.9711 H     1 <1>   0.0996 
 49 H      -14.9046    19.0759     4.3333 H     1 <1>   0.0996 
 50 H      -17.0990    19.8056     5.2287 H     1 <1>   0.0996 
 51 H      -16.4385    19.7673     6.8849 H     1 <1>   0.0996 
 52 H      -16.5698    22.2633     6.0398 H     1 <1>   0.1977 
 53 H      -10.8522     7.5047     3.6951 H     1 <1>   0.1683 
 54 H       -9.8080     5.3929     3.0697 H     1 <1>   0.1683 
 55 H      -11.5653     3.5823     1.0296 H     1 <1>   0.1683 
 56 H      -13.1447     2.5368    -0.5242 H     1 <1>   0.1683 
 57 C        1.3968    11.1628    -0.5776 C.2   1 <1>   0.6679 
 58 H132    -2.0176    10.1700     1.6162 H     1 <1>   0.0996 
 59 C1       0.4963    10.7479     0.5820 C.3   1 <1>  -0.0798 
 60 H131    -2.1924     8.5442     0.9524 H     1 <1>   0.0996 
 61 C132   -10.1065     1.9706     4.6018 C.3   1 <1>  -0.0604 
 62 H132    -9.9918     0.9810     4.1613 H     1 <1>   0.0996 
 63 H11     -0.0724    11.6254     0.8879 H     1 <1>   0.0996 
 64 H12      1.1422    10.4536     1.4070 H     1 <1>   0.0996 
 65 C13     -0.4717     9.5999     0.2267 C.3   1 <1>  -0.1419 
 66 H131    -1.0372     9.8901    -0.6627 H     1 <1>   0.0996 
 67 C132    -1.4717     9.2639     1.3480 C.3   1 <1>  -0.1419 
 68 C133    -0.8056     8.6566     2.5979 C.3   1 <1>  -0.1419 
 69 C131    -1.8223     8.1641     3.6451 C.3   1 <1>  -0.1419 
 70 H131    -2.5232     7.4711     3.1741 H     1 <1>   0.0996 
 71 C132    -2.6023     9.3089     4.3185 C.3   1 <1>  -0.1419 
 72 H131    -3.1721     9.8515     3.5635 H     1 <1>   0.0996 
 73 H132    -1.8988    10.0073     4.7763 H     1 <1>   0.0996 
 74 C133    -3.5956     8.8369     5.3959 C.3   1 <1>  -0.0012 
 75 H131    -4.1717     9.6877     5.7371 H     1 <1>   0.0996 
 76 C132    -2.9391     8.1845     6.5985 C.2   1 <1>  -0.2725 
 77 H132    -1.9060     8.3983     6.7211 H     1 <1>   0.1683 
 78 C133    -3.5784     7.4058     7.4871 C.2   1 <1>  -0.2725 
 79 H131    -3.0518     6.9775     8.3045 H     1 <1>   0.1683 
 80 C132    -5.0523     7.0534     7.4336 C.3   1 <1>  -0.0012 
 81 C131    -5.3062     5.6843     6.7853 C.3   1 <1>  -0.1419 
 82 H131    -4.8397     5.6773     5.7982 H     1 <1>   0.0996 
 83 C132    -6.7993     5.3568     6.6357 C.3   1 <1>  -0.1419 
 84 H131    -7.2743     6.1160     6.0101 H     1 <1>   0.0996 
 85 H132    -7.2790     5.3623     7.6169 H     1 <1>   0.0996 
 86 C133    -6.9920     3.9803     5.9842 C.3   1 <1>  -0.1419 
 87 H131    -6.4669     3.9545     5.0261 H     1 <1>   0.0996 
 88 C132    -8.4811     3.7052     5.7324 C.3   1 <1>  -0.1419 
 89 H131    -8.8738     4.4810     5.0802 H     1 <1>   0.0996 
 90 H132    -9.0273     3.7216     6.6751 H     1 <1>   0.0996 
 91 C133    -8.6635     2.3476     5.0355 C.3   1 <1>  -0.1419 
 92 H131    -8.0304     2.3259     4.1459 H     1 <1>   0.0996 
 93 C133   -10.9952     1.8402     5.8586 C.3   1 <1>  -0.2234 
 94 H131   -10.5381     1.1497     6.5668 H     1 <1>   0.0996 
 95 H132   -11.9814     1.4660     5.5963 H     1 <1>   0.0996 
 96 H133   -11.1149     2.8125     6.3347 H     1 <1>   0.0996 
 97 H133    -8.2904     1.5653     5.6959 H     1 <1>   0.0996 
 98 H133    -6.5807     3.2031     6.6311 H     1 <1>   0.0996 
 99 H133    -4.8240     4.9155     7.3923 H     1 <1>   0.0996 
100 H132    -5.6102     7.8183     6.9111 H     1 <1>   0.0996 
101 H133    -5.4554     7.0602     8.4384 H     1 <1>   0.0996 
102 H133    -4.3120     8.1622     4.9458 H     1 <1>   0.0996 
103 H133    -1.2783     7.6094     4.4130 H     1 <1>   0.0996 
104 H132    -0.1434     9.3885     3.0634 H     1 <1>   0.0996 
105 H133    -0.1974     7.8030     2.2893 H     1 <1>   0.0996 
106 H133     0.1045     8.7082    -0.0326 H     1 <1>   0.0996 
107 O2       1.4583    10.6141    -1.6652 O.2   1 <1>  -0.5594 
108 O3       2.1715    12.2320    -0.3292 O.3   1 <1>  -0.6409 
109 H3       2.6677    12.3656    -1.1387 H     1 <1>   0.5119 
@<TRIPOS>BOND
  1   1   2  1   
  2   1   3  ar  
  3   1  27  ar  
  4   3   4  ar  
  5   3  28  1   
  6   4   5  ar  
  7   4  29  1   
  8   5   6  1   
  9   5  26  ar  
 10   6   7  1   
 11   6   8  1   
 12   6  61  1   
 13   8   9  ar  
 14   8  25  ar  
 15   9  10  ar  
 16   9  30  1   
 17  10  11  ar  
 18  10  31  1   
 19  11  12  1   
 20  11  24  ar  
 21  12  13  1   
 22  13  14  1   
 23  13  32  1   
 24  13  33  1   
 25  14  15  1   
 26  14  34  1   
 27  14  35  1   
 28  15  16  1   
 29  15  36  1   
 30  15  37  1   
 31  16  17  1   
 32  16  38  1   
 33  16  39  1   
 34  17  18  1   
 35  17  40  1   
 36  17  41  1   
 37  18  19  1   
 38  18  42  1   
 39  18  43  1   
 40  19  20  1   
 41  19  44  1   
 42  19  45  1   
 43  20  21  1   
 44  20  46  1   
 45  20  47  1   
 46  21  22  1   
 47  21  48  1   
 48  21  49  1   
 49  22  23  1   
 50  22  50  1   
 51  22  51  1   
 52  23  52  1   
 53  24  25  ar  
 54  24  53  1   
 55  25  54  1   
 56  26  27  ar  
 57  26  55  1   
 58  27  56  1   
 59  57  59  1   
 60  57 107  2   
 61  57 108  1   
 62  58  67  1   
 63  59  63  1   
 64  59  64  1   
 65  59  65  1   
 66  60  67  1   
 67  61  62  1   
 68  61  91  1   
 69  61  93  1   
 70  65  66  1   
 71  65  67  1   
 72  65 106  1   
 73  67  68  1   
 74  68  69  1   
 75  68 104  1   
 76  68 105  1   
 77  69  70  1   
 78  69  71  1   
 79  69 103  1   
 80  71  72  1   
 81  71  73  1   
 82  71  74  1   
 83  74  75  1   
 84  74  76  1   
 85  74 102  1   
 86  76  77  1   
 87  76  78  2   
 88  78  79  1   
 89  78  80  1   
 90  80  81  1   
 91  80 100  1   
 92  80 101  1   
 93  81  82  1   
 94  81  83  1   
 95  81  99  1   
 96  83  84  1   
 97  83  85  1   
 98  83  86  1   
 99  86  87  1   
100  86  88  1   
101  86  98  1   
102  88  89  1   
103  88  90  1   
104  88  91  1   
105  91  92  1   
106  91  97  1   
107  93  94  1   
108  93  95  1   
109  93  96  1   
110 108 109  1   
@<TRIPOS>SUBSTRUCTURE
  1 ****  24 GROUP 4 **** **** 0

# MOE 2020.09 (io_trps.svl 2020.11)
