@<TRIPOS>MOLECULE
C27H37NOS2
2569 2078 493 0 0 
SMALL
USER_CHARGES


@<TRIPOS>ATOM
   1 C        3.6792     4.4976    -0.4140 C.ar    1 <1>   -0.1317 
   2 H        4.5319     3.9045    -0.2042 H       1 <1>    0.1683 
   3 C        2.6645     4.0003    -1.2222 C.ar    1 <1>   -0.1317 
   4 C        1.5474     4.7836    -1.4963 C.ar    1 <1>   -0.1317 
   5 C        1.4052     6.0620    -0.9485 C.ar    1 <1>   -0.1251 
   6 C        0.1277     6.8650    -1.2803 C.3     1 <1>    0.2315 
   7 O        0.3583     7.2090    -2.6605 O.3     1 <1>   -0.9234 
   8 C       -1.1650     6.0164    -1.3533 C.ar    1 <1>   -0.1251 
   9 C       -2.1705     6.3943    -2.2514 C.ar    1 <1>   -0.1317 
  10 C       -3.3561     5.6778    -2.3471 C.ar    1 <1>   -0.1317 
  11 C       -3.5531     4.5719    -1.5322 C.ar    1 <1>    0.1020 
  12 O       -4.7483     3.9102    -1.6610 O.3     1 <1>   -0.3481 
  13 C       -5.4524     3.2523    -0.5969 C.3     1 <1>    0.1388 
  14 C       -6.9176     3.0544    -0.9924 C.3     1 <1>   -0.1419 
  15 C       -7.8070     2.5751     0.1658 C.3     1 <1>   -0.1419 
  16 C       -9.2604     2.4605    -0.3219 C.3     1 <1>   -0.1419 
  17 C      -10.2196     2.1089     0.8243 C.3     1 <1>   -0.1419 
  18 C      -11.6634     2.0348     0.3023 C.3     1 <1>   -0.1419 
  19 C      -12.6478     1.7672     1.4495 C.3     1 <1>   -0.1419 
  20 C      -14.0937     1.7153     0.9347 C.3     1 <1>   -0.1419 
  21 C      -15.0640     1.4940     2.1050 C.3     1 <1>   -0.1419 
  22 C      -16.5203     1.4610     1.6340 C.3     1 <1>    0.0897 
  23 S      -17.5557     1.2569     3.1049 S.3     1 <1>   -0.3965 
  24 C       -2.5667     4.1613    -0.6373 C.ar    1 <1>   -0.1317 
  25 C       -1.3771     4.8843    -0.5542 C.ar    1 <1>   -0.1317 
  26 C        2.4599     6.5654    -0.1814 C.ar    1 <1>   -0.1317 
  27 C        3.5803     5.7864     0.0967 C.ar    1 <1>   -0.1317 
  28 H        2.7433     3.0309    -1.6425 H       1 <1>    0.1683 
  29 H        0.7951     4.4187    -2.1480 H       1 <1>    0.1683 
  30 H       -2.0107     7.2329    -2.8811 H       1 <1>    0.1683 
  31 H       -4.1021     5.9670    -3.0396 H       1 <1>    0.1683 
  32 H       -4.9837     2.2872    -0.3982 H       1 <1>    0.0996 
  33 H       -5.3955     3.8793     0.2941 H       1 <1>    0.0996 
  34 H       -7.2945     4.0105    -1.3617 H       1 <1>    0.0996 
  35 H       -6.9590     2.3381    -1.8153 H       1 <1>    0.0996 
  36 H       -7.4605     1.6019     0.5215 H       1 <1>    0.0996 
  37 H       -7.7537     3.2951     0.9853 H       1 <1>    0.0996 
  38 H       -9.5685     3.4127    -0.7613 H       1 <1>    0.0996 
  39 H       -9.3218     1.6913    -1.0959 H       1 <1>    0.0996 
  40 H       -9.9372     1.1462     1.2566 H       1 <1>    0.0996 
  41 H      -10.1540     2.8777     1.5969 H       1 <1>    0.0996 
  42 H      -11.9240     2.9802    -0.1797 H       1 <1>    0.0996 
  43 H      -11.7413     1.2356    -0.4387 H       1 <1>    0.0996 
  44 H      -12.4001     0.8157     1.9257 H       1 <1>    0.0996 
  45 H      -12.5620     2.5662     2.1890 H       1 <1>    0.0996 
  46 H      -14.3362     2.6569     0.4363 H       1 <1>    0.0996 
  47 H      -14.1961     0.8999     0.2146 H       1 <1>    0.0996 
  48 H      -14.8348     0.5489     2.6016 H       1 <1>    0.0996 
  49 H      -14.9524     2.3017     2.8313 H       1 <1>    0.0996 
  50 H      -16.7749     2.3965     1.1325 H       1 <1>    0.0996 
  51 H      -16.6767     0.6240     0.9510 H       1 <1>    0.0996 
  52 H      -18.7384     1.2547     2.4795 H       1 <1>    0.1977 
  53 H       -2.7080     3.2998    -0.0411 H       1 <1>    0.1683 
  54 H       -0.6173     4.5662     0.1107 H       1 <1>    0.1683 
  55 H        2.4329     7.5564     0.1715 H       1 <1>    0.1683 
  56 H        4.3649     6.1840     0.6871 H       1 <1>    0.1683 
  57 C        0.7555    11.3926    -2.7999 C.2     1 <1>    0.6679 
  58 C1      -0.0016    10.1651    -2.3142 C.3     1 <1>   -0.0798 
  59 C132   -11.0367     1.5352     5.1131 C.3     1 <1>   -0.1419 
  60 H11     -0.1014     9.4872    -3.1602 H       1 <1>    0.0996 
  61 H132   -11.1943     1.6675     4.0427 H       1 <1>    0.0996 
  62 H131   -11.2888     0.5013     5.3618 H       1 <1>    0.0996 
  63 H12     -0.9993    10.4836    -2.0224 H       1 <1>    0.0996 
  64 C13      0.6878     9.4419    -1.1353 C.3     1 <1>   -0.1419 
  65 H131     1.6539     9.0661    -1.4781 H       1 <1>    0.0996 
  66 C132    -0.1501     8.2572    -0.5693 C.3     1 <1>   -0.0604 
  67 H132    -1.1874     8.4694    -0.8221 H       1 <1>    0.0996 
  68 C133    -0.0744     8.3394     0.9841 C.3     1 <1>   -0.1419 
  69 C131    -0.6569     7.2007     1.8298 C.3     1 <1>   -0.1419 
  70 H131    -0.2228     6.2570     1.5048 H       1 <1>    0.0996 
  71 C132    -2.1937     7.1335     1.8064 C.3     1 <1>   -0.1419 
  72 H131    -2.5343     7.0423     0.7743 H       1 <1>    0.0996 
  73 H132    -2.6020     8.0618     2.2094 H       1 <1>    0.0996 
  74 C133    -2.7613     5.9530     2.6158 C.3     1 <1>   -0.0012 
  75 H131    -3.8154     5.8576     2.4056 H       1 <1>    0.0996 
  76 C132    -2.4888     6.0626     4.1076 C.2     1 <1>   -0.2725 
  77 H132    -1.4571     6.0529     4.3569 H       1 <1>    0.1683 
  78 C133    -3.4074     6.1580     5.0841 C.2     1 <1>   -0.2725 
  79 H131    -3.0989     6.2200     6.0989 H       1 <1>    0.1683 
  80 C132    -4.9116     6.1530     4.9036 C.3     1 <1>   -0.0012 
  81 C131    -5.4977     4.7490     5.1175 C.3     1 <1>   -0.1419 
  82 H131    -5.0249     4.0658     4.4095 H       1 <1>    0.0996 
  83 C132    -7.0230     4.6830     4.9503 C.3     1 <1>   -0.1419 
  84 H131    -7.2889     4.9550     3.9268 H       1 <1>    0.0996 
  85 H132    -7.4931     5.3934     5.6347 H       1 <1>    0.0996 
  86 C133    -7.5313     3.2666     5.2615 C.3     1 <1>   -0.1419 
  87 H131    -7.0329     2.5475     4.6077 H       1 <1>    0.0996 
  88 C132    -9.0510     3.1681     5.0629 C.3     1 <1>   -0.1419 
  89 H131    -9.2955     3.3760     4.0199 H       1 <1>    0.0996 
  90 H132    -9.5417     3.9120     5.6941 H       1 <1>    0.0996 
  91 C133    -9.5519     1.7635     5.4412 C.3     1 <1>   -0.1419 
  92 H131    -8.9663     1.0173     4.8995 H       1 <1>    0.0996 
  93 C133   -11.9851     2.4635     5.8855 C.3     1 <1>   -0.2234 
  94 H131   -11.8055     2.3755     6.9585 H       1 <1>    0.0996 
  95 H132   -13.0194     2.1806     5.6828 H       1 <1>    0.0996 
  96 H133   -11.8462     3.5009     5.5806 H       1 <1>    0.0996 
  97 H133    -9.3926     1.5981     6.5096 H       1 <1>    0.0996 
  98 H133    -7.2873     3.0177     6.2974 H       1 <1>    0.0996 
  99 H133    -5.2324     4.4222     6.1255 H       1 <1>    0.0996 
 100 H132    -5.1978     6.5453     3.9383 H       1 <1>    0.0996 
 101 H133    -5.3501     6.8411     5.6155 H       1 <1>    0.0996 
 102 H133    -2.3306     5.0309     2.2494 H       1 <1>    0.0996 
 103 H133    -0.3341     7.3645     2.8585 H       1 <1>    0.0996 
 104 H132    -0.5730     9.2614     1.2882 H       1 <1>    0.0996 
 105 H133     0.9613     8.4614     1.2900 H       1 <1>    0.0996 
 106 H133     0.8755    10.1841    -0.3589 H       1 <1>    0.0996 
 107 O2       1.7077    11.9218    -2.2441 O.2     1 <1>   -0.5594 
 108 O3       0.2854    11.9403    -3.9349 O.3     1 <1>   -0.6409 
 109 H3       0.8920    12.6589    -4.1098 H       1 <1>    0.5119 
 110 CL     -30.4777    -8.7702   -19.4570 Cl      2 CCL4  -0.0812 
 111 C      -29.9764    -8.7703   -17.8365 C.3     2 CCL4   0.3246 
 112 CL     -30.3128   -10.2660   -17.0518 Cl      2 CCL4  -0.0812 
 113 CL     -30.5346    -7.4149   -16.9504 Cl      2 CCL4  -0.0812 
 114 CL     -28.1843    -8.6438   -17.8588 Cl      2 CCL4  -0.0812 
 115 CL     -20.2039     4.6658     1.0242 Cl      3 CCL4  -0.0812 
 116 C      -19.4880     4.3917    -0.5964 C.3     3 CCL4   0.3246 
 117 CL     -18.9182     6.0685    -1.0722 Cl      3 CCL4  -0.0812 
 118 CL     -20.6992     3.6902    -1.6955 Cl      3 CCL4  -0.0812 
 119 CL     -18.0979     3.3724    -0.2656 Cl      3 CCL4  -0.0812 
 120 CL     -21.3285    -0.9624   -17.1307 Cl      4 CCL4  -0.0812 
 121 C      -21.3738     0.6578   -17.8130 C.3     4 CCL4   0.3246 
 122 CL     -21.1288     1.9322   -16.4558 Cl      4 CCL4  -0.0812 
 123 CL     -22.9893     1.0536   -18.4681 Cl      4 CCL4  -0.0812 
 124 CL     -20.2075     1.0834   -19.0688 Cl      4 CCL4  -0.0812 
 125 CL      22.0101     5.1508   -18.4977 Cl      5 CCL4  -0.0812 
 126 C       20.2113     4.7352   -18.5020 C.3     5 CCL4   0.3246 
 127 CL      20.0010     3.0358   -19.1098 Cl      5 CCL4  -0.0812 
 128 CL      19.3682     5.8568   -19.5531 Cl      5 CCL4  -0.0812 
 129 CL      19.5403     5.0182   -16.8374 Cl      5 CCL4  -0.0812 
 130 CL      20.1107   -11.9082    19.6249 Cl      6 CCL4  -0.0812 
 131 C       19.8632   -13.4789    20.3906 C.3     6 CCL4   0.3246 
 132 CL      18.4844   -13.4427    21.4741 Cl      6 CCL4  -0.0812 
 133 CL      21.3203   -13.9649    21.3358 Cl      6 CCL4  -0.0812 
 134 CL      19.6405   -14.7590    19.1116 Cl      6 CCL4  -0.0812 
 135 CL     -17.3717    -8.9347   -13.4929 Cl      7 CCL4  -0.0812 
 136 C      -17.7010   -10.5623   -14.1496 C.3     7 CCL4   0.3246 
 137 CL     -18.9519   -11.4012   -13.2632 Cl      7 CCL4  -0.0812 
 138 CL     -16.3086   -11.5651   -13.9158 Cl      7 CCL4  -0.0812 
 139 CL     -18.1138   -10.3135   -15.9003 Cl      7 CCL4  -0.0812 
 140 CL     -17.0868    23.0450   -13.6941 Cl      8 CCL4  -0.0812 
 141 C      -18.5523    23.9208   -14.2188 C.3     8 CCL4   0.3246 
 142 CL     -17.9873    25.1646   -15.3716 Cl      8 CCL4  -0.0812 
 143 CL     -19.4445    24.6697   -12.9201 Cl      8 CCL4  -0.0812 
 144 CL     -19.6538    22.8346   -15.2041 Cl      8 CCL4  -0.0812 
 145 CL     -19.1616    -9.7385    -8.6972 Cl      9 CCL4  -0.0812 
 146 C      -19.9182   -11.3064    -8.2172 C.3     9 CCL4   0.3246 
 147 CL     -20.0263   -12.3599    -9.6726 Cl      9 CCL4  -0.0812 
 148 CL     -21.5982   -10.9640    -7.5829 Cl      9 CCL4  -0.0812 
 149 CL     -18.9719   -12.2109    -6.9194 Cl      9 CCL4  -0.0812 
 150 CL     -19.5596   -15.3099    21.1959 Cl     10 CCL4  -0.0812 
 151 C      -19.0155   -13.8007    20.4680 C.3    10 CCL4   0.3246 
 152 CL     -17.7446   -13.0200    21.5116 Cl     10 CCL4  -0.0812 
 153 CL     -20.3276   -12.5582    20.3729 Cl     10 CCL4  -0.0812 
 154 CL     -18.3474   -13.9116    18.9006 Cl     10 CCL4  -0.0812 
 155 CL     -31.0252    -9.5912    -3.9361 Cl     11 CCL4  -0.0812 
 156 C      -30.2812   -10.2898    -2.5824 C.3    11 CCL4   0.3246 
 157 CL     -31.3044   -10.2565    -1.1327 Cl     11 CCL4  -0.0812 
 158 CL     -28.9062    -9.2698    -2.0760 Cl     11 CCL4  -0.0812 
 159 CL     -29.7319   -11.9192    -2.9137 Cl     11 CCL4  -0.0812 
 160 CL     -16.8461    24.5593    -7.6881 Cl     12 CCL4  -0.0812 
 161 C      -17.8088    23.1806    -8.4081 C.3    12 CCL4   0.3246 
 162 CL     -16.9658    22.5370    -9.8620 Cl     12 CCL4  -0.0812 
 163 CL     -19.3768    23.8122    -8.8870 Cl     12 CCL4  -0.0812 
 164 CL     -18.1301    21.7973    -7.2464 Cl     12 CCL4  -0.0812 
 165 CL      19.1306   -11.3295    -9.8628 Cl     13 CCL4  -0.0812 
 166 C       20.0315   -10.2568    -8.7890 C.3    13 CCL4   0.3246 
 167 CL      21.1914    -9.1694    -9.5975 Cl     13 CCL4  -0.0812 
 168 CL      21.0035   -11.3415    -7.5411 Cl     13 CCL4  -0.0812 
 169 CL      18.9255    -9.2913    -7.8094 Cl     13 CCL4  -0.0812 
 170 CL     -28.2966    24.1441   -11.4814 Cl     14 CCL4  -0.0812 
 171 C      -29.8350    24.5685   -10.8928 C.3    14 CCL4   0.3246 
 172 CL     -30.9169    24.8873   -12.3354 Cl     14 CCL4  -0.0812 
 173 CL     -29.7453    26.0184    -9.9552 Cl     14 CCL4  -0.0812 
 174 CL     -30.5698    23.2855    -9.9655 Cl     14 CCL4  -0.0812 
 175 CL     -26.9206    -6.9172    -7.2123 Cl     15 CCL4  -0.0812 
 176 C      -26.3232    -8.1195    -6.1057 C.3    15 CCL4   0.3246 
 177 CL     -27.0813    -9.6892    -6.5099 Cl     15 CCL4  -0.0812 
 178 CL     -26.7850    -7.7124    -4.4031 Cl     15 CCL4  -0.0812 
 179 CL     -24.5596    -8.3293    -6.1187 Cl     15 CCL4  -0.0812 
 180 CL     -20.8307    -7.0724    -4.8065 Cl     16 CCL4  -0.0812 
 181 C      -19.4815    -7.8781    -3.9065 C.3    16 CCL4   0.3246 
 182 CL     -17.8837    -7.4877    -4.7292 Cl     16 CCL4  -0.0812 
 183 CL     -19.7326    -9.6366    -3.9693 Cl     16 CCL4  -0.0812 
 184 CL     -19.4752    -7.1921    -2.2417 Cl     16 CCL4  -0.0812 
 185 CL     -18.3260     1.3877    -7.9349 Cl     17 CCL4  -0.0812 
 186 C      -17.8801     2.2343    -9.4251 C.3    17 CCL4   0.3246 
 187 CL     -17.2035     3.8276    -8.9324 Cl     17 CCL4  -0.0812 
 188 CL     -19.4753     2.4912   -10.1749 Cl     17 CCL4  -0.0812 
 189 CL     -16.8084     1.3899   -10.5842 Cl     17 CCL4  -0.0812 
 190 CL     -17.8365    -4.0134    -3.0232 Cl     18 CCL4  -0.0812 
 191 C      -17.9186    -3.2517    -1.4691 C.3    18 CCL4   0.3246 
 192 CL     -18.7383    -4.3143    -0.2662 Cl     18 CCL4  -0.0812 
 193 CL     -18.8023    -1.7695    -1.6050 Cl     18 CCL4  -0.0812 
 194 CL     -16.2540    -2.9643    -0.8733 Cl     18 CCL4  -0.0812 
 195 CL     -19.5918    -7.1568   -10.7821 Cl     19 CCL4  -0.0812 
 196 C      -20.5540    -6.3659    -9.5205 C.3    19 CCL4   0.3246 
 197 CL     -19.5225    -5.7504    -8.2183 Cl     19 CCL4  -0.0812 
 198 CL     -21.7693    -7.3477    -8.7829 Cl     19 CCL4  -0.0812 
 199 CL     -21.2637    -4.7651   -10.2777 Cl     19 CCL4  -0.0812 
 200 CL     -18.8218    -1.6360   -12.1020 Cl     20 CCL4  -0.0812 
 201 C      -19.6353    -1.0119   -13.4579 C.3    20 CCL4   0.3246 
 202 CL     -21.2157    -1.8316   -13.5640 Cl     20 CCL4  -0.0812 
 203 CL     -18.9068    -1.3296   -14.9588 Cl     20 CCL4  -0.0812 
 204 CL     -19.8542     0.6876   -13.1613 Cl     20 CCL4  -0.0812 
 205 CL      21.6402    -0.6104    -4.7981 Cl     21 CCL4  -0.0812 
 206 C       20.0553    -0.6200    -3.9969 C.3    21 CCL4   0.3246 
 207 CL      19.9184    -1.8295    -2.6803 Cl     21 CCL4  -0.0812 
 208 CL      18.7089    -0.8564    -5.2357 Cl     21 CCL4  -0.0812 
 209 CL      19.6969     1.0628    -3.4435 Cl     21 CCL4  -0.0812 
 210 CL      18.9844    -2.8082    -8.7492 Cl     22 CCL4  -0.0812 
 211 C       19.6420    -4.0215    -9.8742 C.3    22 CCL4   0.3246 
 212 CL      18.4996    -4.4335   -11.1238 Cl     22 CCL4  -0.0812 
 213 CL      20.1364    -5.4365    -9.0409 Cl     22 CCL4  -0.0812 
 214 CL      20.9817    -3.3110   -10.7536 Cl     22 CCL4  -0.0812 
 215 CL     -27.8527    -0.9409   -10.2800 Cl     23 CCL4  -0.0812 
 216 C      -28.3479    -1.1441    -8.4756 C.3    23 CCL4   0.3246 
 217 CL     -30.0253    -0.4457    -8.1806 Cl     23 CCL4  -0.0812 
 218 CL     -27.1214    -0.1987    -7.4924 Cl     23 CCL4  -0.0812 
 219 CL     -28.2529    -2.8468    -7.9956 Cl     23 CCL4  -0.0812 
 220 CL     -21.3065     1.2459    -5.3487 Cl     24 CCL4  -0.0812 
 221 C      -20.3253     0.4216    -4.1574 C.3    24 CCL4   0.3246 
 222 CL     -19.7410    -1.0835    -4.8880 Cl     24 CCL4  -0.0812 
 223 CL     -21.2656     0.1212    -2.8067 Cl     24 CCL4  -0.0812 
 224 CL     -18.8683     1.4642    -3.7907 Cl     24 CCL4  -0.0812 
 225 CL     -30.6362     4.9705    -7.6984 Cl     25 CCL4  -0.0812 
 226 C      -30.5188     3.2100    -7.8478 C.3    25 CCL4   0.3246 
 227 CL     -28.9095     2.6960    -7.4265 Cl     25 CCL4  -0.0812 
 228 CL     -30.5994     2.7573    -9.5800 Cl     25 CCL4  -0.0812 
 229 CL     -31.6781     2.4323    -6.7996 Cl     25 CCL4  -0.0812 
 230 CL      20.5855    -6.1229    -3.1251 Cl     26 CCL4  -0.0812 
 231 C       19.9517    -5.9903    -4.7840 C.3    26 CCL4   0.3246 
 232 CL      20.9611    -6.8036    -5.9706 Cl     26 CCL4  -0.0812 
 233 CL      19.7408    -4.1931    -5.2389 Cl     26 CCL4  -0.0812 
 234 CL      18.3905    -6.7409    -4.8844 Cl     26 CCL4  -0.0812 
 235 CL     -24.3150    -0.5960    -9.5236 Cl     27 CCL4  -0.0812 
 236 C      -22.6811    -0.2058    -8.9397 C.3    27 CCL4   0.3246 
 237 CL     -22.5647     1.5664    -8.6323 Cl     27 CCL4  -0.0812 
 238 CL     -21.4585    -0.7169   -10.1565 Cl     27 CCL4  -0.0812 
 239 CL     -22.3933    -0.9362    -7.3558 Cl     27 CCL4  -0.0812 
 240 CL     -27.5766    -3.6206    -3.5467 Cl     28 CCL4  -0.0812 
 241 C      -27.4654    -3.8035    -1.8080 C.3    28 CCL4   0.3246 
 242 CL     -25.7843    -3.1232    -1.3751 Cl     28 CCL4  -0.0812 
 243 CL     -27.5730    -5.5594    -1.4159 Cl     28 CCL4  -0.0812 
 244 CL     -28.6594    -2.8678    -0.9283 Cl     28 CCL4  -0.0812 
 245 CL     -25.3034    -5.5057   -18.1167 Cl     29 CCL4  -0.0812 
 246 C      -24.7724    -4.1583   -17.1365 C.3    29 CCL4   0.3246 
 247 CL     -25.0194    -2.5913   -18.0343 Cl     29 CCL4  -0.0812 
 248 CL     -23.0202    -4.3891   -16.8780 Cl     29 CCL4  -0.0812 
 249 CL     -25.7067    -4.1064   -15.5632 Cl     29 CCL4  -0.0812 
 250 CL     -27.1373   -11.3124   -15.2224 Cl     30 CCL4  -0.0812 
 251 C      -27.6873   -12.6844   -14.2646 C.3    30 CCL4   0.3246 
 252 CL     -28.6739   -12.1326   -12.8993 Cl     30 CCL4  -0.0812 
 253 CL     -26.2576   -13.4842   -13.6630 Cl     30 CCL4  -0.0812 
 254 CL     -28.7242   -13.7532   -15.3319 Cl     30 CCL4  -0.0812 
 255 CL     -22.0445   -10.2451     0.0988 Cl     31 CCL4  -0.0812 
 256 C      -21.2463   -11.5445     1.0148 C.3    31 CCL4   0.3246 
 257 CL     -22.6221   -12.3803     1.7379 Cl     31 CCL4  -0.0812 
 258 CL     -20.2269   -10.7628     2.1636 Cl     31 CCL4  -0.0812 
 259 CL     -20.4210   -12.6095    -0.0324 Cl     31 CCL4  -0.0812 
 260 CL     -22.2961    -9.2225    20.9753 Cl     32 CCL4  -0.0812 
 261 C      -20.8243    -8.2645    20.8709 C.3    32 CCL4   0.3246 
 262 CL     -19.3438    -9.2802    21.0056 Cl     32 CCL4  -0.0812 
 263 CL     -20.7383    -6.9778    22.0547 Cl     32 CCL4  -0.0812 
 264 CL     -20.7036    -7.4341    19.2706 Cl     32 CCL4  -0.0812 
 265 CL     -23.2969   -14.5397   -15.2701 Cl     33 CCL4  -0.0812 
 266 C      -22.5737   -12.9570   -15.2324 C.3    33 CCL4   0.3246 
 267 CL     -22.2413   -12.5904   -13.4447 Cl     33 CCL4  -0.0812 
 268 CL     -23.7113   -11.6918   -15.7570 Cl     33 CCL4  -0.0812 
 269 CL     -21.0895   -12.7623   -16.1615 Cl     33 CCL4  -0.0812 
 270 CL     -21.6707    -5.7561   -13.9583 Cl     34 CCL4  -0.0812 
 271 C      -22.2089    -7.5170   -14.0431 C.3    34 CCL4   0.3246 
 272 CL     -23.6616    -7.5154   -15.1119 Cl     34 CCL4  -0.0812 
 273 CL     -22.5130    -8.1129   -12.4195 Cl     34 CCL4  -0.0812 
 274 CL     -20.8497    -8.5056   -14.6462 Cl     34 CCL4  -0.0812 
 275 CL     -26.3379   -11.8727   -19.0483 Cl     35 CCL4  -0.0812 
 276 C      -25.4704   -13.3574   -18.9932 C.3    35 CCL4   0.3246 
 277 CL     -25.9894   -14.5955   -20.2058 Cl     35 CCL4  -0.0812 
 278 CL     -25.8254   -14.1632   -17.3090 Cl     35 CCL4  -0.0812 
 279 CL     -23.6750   -13.2009   -19.0360 Cl     35 CCL4  -0.0812 
 280 CL     -25.9577     0.6929   -13.3759 Cl     36 CCL4  -0.0812 
 281 C      -24.3179     1.1340   -13.8755 C.3    36 CCL4   0.3246 
 282 CL     -23.3818     1.4972   -12.5002 Cl     36 CCL4  -0.0812 
 283 CL     -24.3944     2.6588   -14.7692 Cl     36 CCL4  -0.0812 
 284 CL     -23.7096    -0.2049   -14.8341 Cl     36 CCL4  -0.0812 
 285 CL     -28.5691     0.6620   -19.3665 Cl     37 CCL4  -0.0812 
 286 C      -26.8847     0.9136   -18.8975 C.3    37 CCL4   0.3246 
 287 CL     -26.5850     0.2932   -17.2797 Cl     37 CCL4  -0.0812 
 288 CL     -26.7555     2.7376   -18.8894 Cl     37 CCL4  -0.0812 
 289 CL     -25.8875     0.1016   -20.2249 Cl     37 CCL4  -0.0812 
 290 CL     -23.9057   -11.7778    -9.8241 Cl     38 CCL4  -0.0812 
 291 C      -25.1641   -10.6871   -10.4708 C.3    38 CCL4   0.3246 
 292 CL     -26.8703   -11.3910    -9.9426 Cl     38 CCL4  -0.0812 
 293 CL     -25.1436   -10.6152   -12.2423 Cl     38 CCL4  -0.0812 
 294 CL     -25.2353    -9.0816    -9.6864 Cl     38 CCL4  -0.0812 
 295 CL     -27.8918    -7.5644   -11.4062 Cl     39 CCL4  -0.0812 
 296 C      -28.5696    -7.2148   -12.9695 C.3    39 CCL4   0.3246 
 297 CL     -29.3880    -8.7122   -13.4010 Cl     39 CCL4  -0.0812 
 298 CL     -27.4353    -6.8034   -14.3027 Cl     39 CCL4  -0.0812 
 299 CL     -29.8098    -5.9316   -12.9418 Cl     39 CCL4  -0.0812 
 300 CL     -25.5403    25.2650    -8.9317 Cl     40 CCL4  -0.0812 
 301 C      -24.0613    24.5814    -9.6212 C.3    40 CCL4   0.3246 
 302 CL     -23.8468    25.3441   -11.2602 Cl     40 CCL4  -0.0812 
 303 CL     -24.1659    22.8298    -9.7324 Cl     40 CCL4  -0.0812 
 304 CL     -22.6496    24.9691    -8.6363 Cl     40 CCL4  -0.0812 
 305 CL     -24.0507    -5.8616    -0.1050 Cl     41 CCL4  -0.0812 
 306 C      -22.4532    -6.2301    -0.7834 C.3    41 CCL4   0.3246 
 307 CL     -21.8053    -4.7324    -1.6385 Cl     41 CCL4  -0.0812 
 308 CL     -22.6409    -7.5507    -1.9143 Cl     41 CCL4  -0.0812 
 309 CL     -21.3007    -6.7222     0.5660 Cl     41 CCL4  -0.0812 
 310 CL     -27.3217     5.5065   -10.1247 Cl     42 CCL4  -0.0812 
 311 C      -26.0514     4.2613   -10.2754 C.3    42 CCL4   0.3246 
 312 CL     -25.0696     4.2562    -8.7773 Cl     42 CCL4  -0.0812 
 313 CL     -25.1971     4.6468   -11.8528 Cl     42 CCL4  -0.0812 
 314 CL     -26.7678     2.6254   -10.3659 Cl     42 CCL4  -0.0812 
 315 CL     -27.4592     2.2226    -3.9612 Cl     43 CCL4  -0.0812 
 316 C      -25.7966     1.6257    -4.1281 C.3    43 CCL4   0.3246 
 317 CL     -25.2153     2.2832    -5.7108 Cl     43 CCL4  -0.0812 
 318 CL     -25.6703    -0.1032    -3.9697 Cl     43 CCL4  -0.0812 
 319 CL     -24.8405     2.3881    -2.7710 Cl     43 CCL4  -0.0812 
 320 CL     -23.7105   -12.8955    -1.6973 Cl     44 CCL4  -0.0812 
 321 C      -24.7404   -12.1201    -2.9523 C.3    44 CCL4   0.3246 
 322 CL     -25.7907   -13.3508    -3.6521 Cl     44 CCL4  -0.0812 
 323 CL     -23.7858   -11.3174    -4.2011 Cl     44 CCL4  -0.0812 
 324 CL     -25.7712   -10.9234    -1.9985 Cl     44 CCL4  -0.0812 
 325 CL     -21.0136    26.6186    -3.5965 Cl     45 CCL4  -0.0812 
 326 C      -21.0191    24.9715    -4.0196 C.3    45 CCL4   0.3246 
 327 CL     -20.5549    24.0493    -2.5212 Cl     45 CCL4  -0.0812 
 328 CL     -19.8651    24.5984    -5.2277 Cl     45 CCL4  -0.0812 
 329 CL     -22.6195    24.4768    -4.4329 Cl     45 CCL4  -0.0812 
 330 CL     -22.1681    -4.1533    -6.2448 Cl     46 CCL4  -0.0812 
 331 C      -23.5150    -3.8111    -5.2131 C.3    46 CCL4   0.3246 
 332 CL     -24.8457    -3.0998    -6.1396 Cl     46 CCL4  -0.0812 
 333 CL     -23.0095    -2.3760    -4.2786 Cl     46 CCL4  -0.0812 
 334 CL     -24.2048    -5.1511    -4.1804 Cl     46 CCL4  -0.0812 
 335 CL     -27.4812    -0.0159     1.2738 Cl     47 CCL4  -0.0812 
 336 C      -28.5102     1.2403     0.6795 C.3    47 CCL4   0.3246 
 337 CL     -27.4637     2.2595    -0.3398 Cl     47 CCL4  -0.0812 
 338 CL     -29.3275     2.0924     2.0942 Cl     47 CCL4  -0.0812 
 339 CL     -29.8650     0.5599    -0.3052 Cl     47 CCL4  -0.0812 
 340 CL     -28.9133    -5.8782    20.1419 Cl     48 CCL4  -0.0812 
 341 C      -29.3385    -4.0803    19.7706 C.3    48 CCL4   0.3246 
 342 CL     -28.4288    -2.9637    20.7816 Cl     48 CCL4  -0.0812 
 343 CL     -31.0729    -3.8595    20.1893 Cl     48 CCL4  -0.0812 
 344 CL     -28.9423    -3.7254    18.1055 Cl     48 CCL4  -0.0812 
 345 CL     -24.2913    -3.0694   -11.9099 Cl     49 CCL4  -0.0812 
 346 C      -25.3089    -4.3315   -11.1183 C.3    49 CCL4   0.3246 
 347 CL     -24.9591    -4.4264    -9.3606 Cl     49 CCL4  -0.0812 
 348 CL     -24.9933    -5.9318   -11.8019 Cl     49 CCL4  -0.0812 
 349 CL     -27.0729    -4.0292   -11.4553 Cl     49 CCL4  -0.0812 
 350 CL     -30.0214    -1.1209   -16.5277 Cl     50 CCL4  -0.0812 
 351 C      -29.5891    -2.3867   -15.3850 C.3    50 CCL4   0.3246 
 352 CL     -30.8909    -2.3586   -14.2427 Cl     50 CCL4  -0.0812 
 353 CL     -28.0176    -2.0242   -14.4885 Cl     50 CCL4  -0.0812 
 354 CL     -29.3299    -3.9035   -16.1601 Cl     50 CCL4  -0.0812 
 355 CL     -29.7200     2.2997   -15.3386 Cl     51 CCL4  -0.0812 
 356 C      -30.0949     2.5066   -13.6562 C.3    51 CCL4   0.3246 
 357 CL     -29.1514     3.9305   -13.1422 Cl     51 CCL4  -0.0812 
 358 CL     -29.5877     1.0724   -12.7808 Cl     51 CCL4  -0.0812 
 359 CL     -31.7751     2.8106   -13.2785 Cl     51 CCL4  -0.0812 
 360 CL     -30.4777    -8.7702     5.5430 Cl     52 CCL4  -0.0812 
 361 C      -29.9764    -8.7703     7.1635 C.3    52 CCL4   0.3246 
 362 CL     -30.3128   -10.2660     7.9482 Cl     52 CCL4  -0.0812 
 363 CL     -30.5346    -7.4149     8.0496 Cl     52 CCL4  -0.0812 
 364 CL     -28.1843    -8.6438     7.1412 Cl     52 CCL4  -0.0812 
 365 CL     -21.3285    -0.9624     7.8693 Cl     53 CCL4  -0.0812 
 366 C      -21.3738     0.6578     7.1870 C.3    53 CCL4   0.3246 
 367 CL     -21.1288     1.9322     8.5442 Cl     53 CCL4  -0.0812 
 368 CL     -22.9893     1.0536     6.5319 Cl     53 CCL4  -0.0812 
 369 CL     -20.2075     1.0834     5.9312 Cl     53 CCL4  -0.0812 
 370 CL      22.0101     5.1508     6.5023 Cl     54 CCL4  -0.0812 
 371 C       20.2113     4.7352     6.4980 C.3    54 CCL4   0.3246 
 372 CL      20.0010     3.0358     5.8902 Cl     54 CCL4  -0.0812 
 373 CL      19.3682     5.8568     5.4469 Cl     54 CCL4  -0.0812 
 374 CL      19.5403     5.0182     8.1626 Cl     54 CCL4  -0.0812 
 375 CL     -28.4220   -11.1833     0.8693 Cl     55 CCL4  -0.0812 
 376 C      -27.4212   -12.5094     1.6230 C.3    55 CCL4   0.3246 
 377 CL     -27.0041   -13.5880     0.2793 Cl     55 CCL4  -0.0812 
 378 CL     -28.3574   -13.3061     2.8605 Cl     55 CCL4  -0.0812 
 379 CL     -25.9936   -11.7803     2.3664 Cl     55 CCL4  -0.0812 
 380 CL      20.1107   -11.9082     4.6249 Cl     56 CCL4  -0.0812 
 381 C       19.8632   -13.4789     5.3906 C.3    56 CCL4   0.3246 
 382 CL      18.4844   -13.4427     6.4741 Cl     56 CCL4  -0.0812 
 383 CL      21.3203   -13.9649     6.3358 Cl     56 CCL4  -0.0812 
 384 CL      19.6405   -14.7590     4.1116 Cl     56 CCL4  -0.0812 
 385 CL     -17.3717    -8.9347    11.5071 Cl     57 CCL4  -0.0812 
 386 C      -17.7010   -10.5623    10.8504 C.3    57 CCL4   0.3246 
 387 CL     -18.9519   -11.4012    11.7368 Cl     57 CCL4  -0.0812 
 388 CL     -16.3086   -11.5651    11.0842 Cl     57 CCL4  -0.0812 
 389 CL     -18.1138   -10.3135     9.0997 Cl     57 CCL4  -0.0812 
 390 CL     -17.0868    23.0450    11.3059 Cl     58 CCL4  -0.0812 
 391 C      -18.5523    23.9208    10.7812 C.3    58 CCL4   0.3246 
 392 CL     -17.9873    25.1646     9.6284 Cl     58 CCL4  -0.0812 
 393 CL     -19.4445    24.6697    12.0799 Cl     58 CCL4  -0.0812 
 394 CL     -19.6538    22.8346     9.7959 Cl     58 CCL4  -0.0812 
 395 CL     -19.5596   -15.3099     6.1959 Cl     59 CCL4  -0.0812 
 396 C      -19.0155   -13.8007     5.4680 C.3    59 CCL4   0.3246 
 397 CL     -17.7446   -13.0200     6.5116 Cl     59 CCL4  -0.0812 
 398 CL     -20.3276   -12.5582     5.3729 Cl     59 CCL4  -0.0812 
 399 CL     -18.3474   -13.9116     3.9006 Cl     59 CCL4  -0.0812 
 400 CL     -16.8461    24.5593    17.3119 Cl     60 CCL4  -0.0812 
 401 C      -17.8088    23.1806    16.5919 C.3    60 CCL4   0.3246 
 402 CL     -16.9658    22.5370    15.1380 Cl     60 CCL4  -0.0812 
 403 CL     -19.3768    23.8122    16.1130 Cl     60 CCL4  -0.0812 
 404 CL     -18.1301    21.7973    17.7536 Cl     60 CCL4  -0.0812 
 405 CL      19.1306   -11.3295    15.1372 Cl     61 CCL4  -0.0812 
 406 C       20.0315   -10.2568    16.2110 C.3    61 CCL4   0.3246 
 407 CL      21.1914    -9.1694    15.4025 Cl     61 CCL4  -0.0812 
 408 CL      21.0035   -11.3415    17.4589 Cl     61 CCL4  -0.0812 
 409 CL      18.9255    -9.2913    17.1906 Cl     61 CCL4  -0.0812 
 410 CL     -28.2966    24.1441    13.5186 Cl     62 CCL4  -0.0812 
 411 C      -29.8350    24.5685    14.1072 C.3    62 CCL4   0.3246 
 412 CL     -30.9169    24.8873    12.6646 Cl     62 CCL4  -0.0812 
 413 CL     -29.7453    26.0184    15.0448 Cl     62 CCL4  -0.0812 
 414 CL     -30.5698    23.2855    15.0345 Cl     62 CCL4  -0.0812 
 415 CL     -18.3260     1.3877    17.0651 Cl     63 CCL4  -0.0812 
 416 C      -17.8801     2.2343    15.5749 C.3    63 CCL4   0.3246 
 417 CL     -17.2035     3.8276    16.0676 Cl     63 CCL4  -0.0812 
 418 CL     -19.4753     2.4912    14.8251 Cl     63 CCL4  -0.0812 
 419 CL     -16.8084     1.3899    14.4158 Cl     63 CCL4  -0.0812 
 420 CL     -23.2137    -4.3653     4.3576 Cl     64 CCL4  -0.0812 
 421 C      -23.2769    -2.9441     3.2839 C.3    64 CCL4   0.3246 
 422 CL     -22.2840    -3.1186     1.8428 Cl     64 CCL4  -0.0812 
 423 CL     -22.5888    -1.6089     4.3499 Cl     64 CCL4  -0.0812 
 424 CL     -24.8953    -2.6080     2.8345 Cl     64 CCL4  -0.0812 
 425 CL      19.6640    -2.2174     1.4121 Cl     65 CCL4  -0.0812 
 426 C       19.0268    -1.1288     2.7008 C.3    65 CCL4   0.3246 
 427 CL      17.7044    -1.8507     3.6834 Cl     65 CCL4  -0.0812 
 428 CL      18.4809     0.3220     1.8736 Cl     65 CCL4  -0.0812 
 429 CL      20.3830    -0.5976     3.6526 Cl     65 CCL4  -0.0812 
 430 CL     -19.5918    -7.1568    14.2179 Cl     66 CCL4  -0.0812 
 431 C      -20.5540    -6.3659    15.4795 C.3    66 CCL4   0.3246 
 432 CL     -19.5225    -5.7504    16.7817 Cl     66 CCL4  -0.0812 
 433 CL     -21.7693    -7.3477    16.2171 Cl     66 CCL4  -0.0812 
 434 CL     -21.2637    -4.7651    14.7223 Cl     66 CCL4  -0.0812 
 435 CL     -18.8218    -1.6360    12.8980 Cl     67 CCL4  -0.0812 
 436 C      -19.6353    -1.0119    11.5421 C.3    67 CCL4   0.3246 
 437 CL     -21.2157    -1.8316    11.4360 Cl     67 CCL4  -0.0812 
 438 CL     -18.9068    -1.3296    10.0412 Cl     67 CCL4  -0.0812 
 439 CL     -19.8542     0.6876    11.8387 Cl     67 CCL4  -0.0812 
 440 CL      21.8904    -7.4871     2.0031 Cl     68 CCL4  -0.0812 
 441 C       20.1888    -7.4289     1.7177 C.3    68 CCL4   0.3246 
 442 CL      19.4829    -8.8922     2.1766 Cl     68 CCL4  -0.0812 
 443 CL      19.8531    -6.9785    -0.0222 Cl     68 CCL4  -0.0812 
 444 CL      19.5341    -6.0606     2.7346 Cl     68 CCL4  -0.0812 
 445 CL      18.9844    -2.8082    16.2508 Cl     69 CCL4  -0.0812 
 446 C       19.6420    -4.0215    15.1258 C.3    69 CCL4   0.3246 
 447 CL      18.4996    -4.4335    13.8762 Cl     69 CCL4  -0.0812 
 448 CL      20.1364    -5.4365    15.9591 Cl     69 CCL4  -0.0812 
 449 CL      20.9817    -3.3110    14.2464 Cl     69 CCL4  -0.0812 
 450 CL     -30.6362     4.9705    17.3016 Cl     70 CCL4  -0.0812 
 451 C      -30.5188     3.2100    17.1522 C.3    70 CCL4   0.3246 
 452 CL     -28.9095     2.6960    17.5735 Cl     70 CCL4  -0.0812 
 453 CL     -30.5994     2.7573    15.4200 Cl     70 CCL4  -0.0812 
 454 CL     -31.6781     2.4323    18.2004 Cl     70 CCL4  -0.0812 
 455 CL     -24.3150    -0.5960    15.4764 Cl     71 CCL4  -0.0812 
 456 C      -22.6811    -0.2058    16.0603 C.3    71 CCL4   0.3246 
 457 CL     -22.5647     1.5664    16.3677 Cl     71 CCL4  -0.0812 
 458 CL     -21.4585    -0.7169    14.8435 Cl     71 CCL4  -0.0812 
 459 CL     -22.3933    -0.9362    17.6442 Cl     71 CCL4  -0.0812 
 460 CL     -25.3034    -5.5057     6.8833 Cl     72 CCL4  -0.0812 
 461 C      -24.7724    -4.1583     7.8635 C.3    72 CCL4   0.3246 
 462 CL     -25.0194    -2.5913     6.9657 Cl     72 CCL4  -0.0812 
 463 CL     -23.0202    -4.3891     8.1220 Cl     72 CCL4  -0.0812 
 464 CL     -25.7067    -4.1064     9.4368 Cl     72 CCL4  -0.0812 
 465 CL     -27.1373   -11.3124     9.7776 Cl     73 CCL4  -0.0812 
 466 C      -27.6873   -12.6844    10.7354 C.3    73 CCL4   0.3246 
 467 CL     -28.6739   -12.1326    12.1007 Cl     73 CCL4  -0.0812 
 468 CL     -26.2576   -13.4842    11.3370 Cl     73 CCL4  -0.0812 
 469 CL     -28.7242   -13.7532     9.6681 Cl     73 CCL4  -0.0812 
 470 CL     -22.2961    -9.2225     5.9753 Cl     74 CCL4  -0.0812 
 471 C      -20.8243    -8.2645     5.8709 C.3    74 CCL4   0.3246 
 472 CL     -19.3438    -9.2802     6.0056 Cl     74 CCL4  -0.0812 
 473 CL     -20.7383    -6.9778     7.0547 Cl     74 CCL4  -0.0812 
 474 CL     -20.7036    -7.4341     4.2706 Cl     74 CCL4  -0.0812 
 475 CL     -23.2969   -14.5397     9.7299 Cl     75 CCL4  -0.0812 
 476 C      -22.5737   -12.9570     9.7676 C.3    75 CCL4   0.3246 
 477 CL     -22.2413   -12.5904    11.5553 Cl     75 CCL4  -0.0812 
 478 CL     -23.7113   -11.6918     9.2430 Cl     75 CCL4  -0.0812 
 479 CL     -21.0895   -12.7623     8.8385 Cl     75 CCL4  -0.0812 
 480 CL     -21.6707    -5.7561    11.0417 Cl     76 CCL4  -0.0812 
 481 C      -22.2089    -7.5170    10.9569 C.3    76 CCL4   0.3246 
 482 CL     -23.6616    -7.5154     9.8881 Cl     76 CCL4  -0.0812 
 483 CL     -22.5130    -8.1129    12.5805 Cl     76 CCL4  -0.0812 
 484 CL     -20.8497    -8.5056    10.3538 Cl     76 CCL4  -0.0812 
 485 CL     -21.6232    24.5612     2.9596 Cl     77 CCL4  -0.0812 
 486 C      -22.8344    23.4888     2.0417 C.3    77 CCL4   0.3246 
 487 CL     -23.0754    21.9841     2.9794 Cl     77 CCL4  -0.0812 
 488 CL     -22.1141    23.1018     0.4283 Cl     77 CCL4  -0.0812 
 489 CL     -24.3905    24.3334     2.0192 Cl     77 CCL4  -0.0812 
 490 CL     -24.1953     0.6924     1.4502 Cl     78 CCL4  -0.0812 
 491 C      -23.6471     2.2804     1.8502 C.3    78 CCL4   0.3246 
 492 CL     -23.2702     3.2444     0.4743 Cl     78 CCL4  -0.0812 
 493 CL     -22.3260     2.2397     2.9787 Cl     78 CCL4  -0.0812 
 494 CL     -24.9490     3.1756     2.6835 Cl     78 CCL4  -0.0812 
 495 CL     -26.3379   -11.8727     5.9517 Cl     79 CCL4  -0.0812 
 496 C      -25.4704   -13.3574     6.0068 C.3    79 CCL4   0.3246 
 497 CL     -25.9894   -14.5955     4.7942 Cl     79 CCL4  -0.0812 
 498 CL     -25.8254   -14.1632     7.6910 Cl     79 CCL4  -0.0812 
 499 CL     -23.6750   -13.2009     5.9640 Cl     79 CCL4  -0.0812 
 500 CL     -25.9577     0.6929    11.6241 Cl     80 CCL4  -0.0812 
 501 C      -24.3179     1.1340    11.1245 C.3    80 CCL4   0.3246 
 502 CL     -23.3818     1.4972    12.4998 Cl     80 CCL4  -0.0812 
 503 CL     -24.3944     2.6588    10.2308 Cl     80 CCL4  -0.0812 
 504 CL     -23.7096    -0.2049    10.1659 Cl     80 CCL4  -0.0812 
 505 CL     -23.9998    -8.0515     3.0086 Cl     81 CCL4  -0.0812 
 506 C      -25.6847    -7.7449     2.5650 C.3    81 CCL4   0.3246 
 507 CL     -26.7126    -8.5588     3.7542 Cl     81 CCL4  -0.0812 
 508 CL     -26.1007    -8.3426     0.9226 Cl     81 CCL4  -0.0812 
 509 CL     -26.2175    -6.0523     2.6638 Cl     81 CCL4  -0.0812 
 510 CL     -28.5691     0.6620     5.6335 Cl     82 CCL4  -0.0812 
 511 C      -26.8847     0.9136     6.1025 C.3    82 CCL4   0.3246 
 512 CL     -26.5850     0.2932     7.7203 Cl     82 CCL4  -0.0812 
 513 CL     -26.7555     2.7376     6.1106 Cl     82 CCL4  -0.0812 
 514 CL     -25.8875     0.1016     4.7751 Cl     82 CCL4  -0.0812 
 515 CL     -23.9057   -11.7778    15.1759 Cl     83 CCL4  -0.0812 
 516 C      -25.1641   -10.6871    14.5292 C.3    83 CCL4   0.3246 
 517 CL     -26.8703   -11.3910    15.0574 Cl     83 CCL4  -0.0812 
 518 CL     -25.1436   -10.6152    12.7577 Cl     83 CCL4  -0.0812 
 519 CL     -25.2353    -9.0816    15.3136 Cl     83 CCL4  -0.0812 
 520 CL     -27.8918    -7.5644    13.5938 Cl     84 CCL4  -0.0812 
 521 C      -28.5696    -7.2148    12.0305 C.3    84 CCL4   0.3246 
 522 CL     -29.3880    -8.7122    11.5990 Cl     84 CCL4  -0.0812 
 523 CL     -27.4353    -6.8034    10.6973 Cl     84 CCL4  -0.0812 
 524 CL     -29.8098    -5.9316    12.0582 Cl     84 CCL4  -0.0812 
 525 CL     -25.5403    25.2650    16.0683 Cl     85 CCL4  -0.0812 
 526 C      -24.0613    24.5814    15.3788 C.3    85 CCL4   0.3246 
 527 CL     -23.8468    25.3441    13.7398 Cl     85 CCL4  -0.0812 
 528 CL     -24.1659    22.8298    15.2676 Cl     85 CCL4  -0.0812 
 529 CL     -22.6496    24.9691    16.3637 Cl     85 CCL4  -0.0812 
 530 CL     -27.3217     5.5065    14.8753 Cl     86 CCL4  -0.0812 
 531 C      -26.0514     4.2613    14.7246 C.3    86 CCL4   0.3246 
 532 CL     -25.0696     4.2562    16.2227 Cl     86 CCL4  -0.0812 
 533 CL     -25.1971     4.6468    13.1472 Cl     86 CCL4  -0.0812 
 534 CL     -26.7678     2.6254    14.6341 Cl     86 CCL4  -0.0812 
 535 CL     -28.9133    -5.8782     5.1419 Cl     87 CCL4  -0.0812 
 536 C      -29.3385    -4.0803     4.7706 C.3    87 CCL4   0.3246 
 537 CL     -28.4288    -2.9637     5.7816 Cl     87 CCL4  -0.0812 
 538 CL     -31.0729    -3.8595     5.1893 Cl     87 CCL4  -0.0812 
 539 CL     -28.9423    -3.7254     3.1055 Cl     87 CCL4  -0.0812 
 540 CL     -24.2913    -3.0694    13.0901 Cl     88 CCL4  -0.0812 
 541 C      -25.3089    -4.3315    13.8817 C.3    88 CCL4   0.3246 
 542 CL     -24.9591    -4.4264    15.6394 Cl     88 CCL4  -0.0812 
 543 CL     -24.9933    -5.9318    13.1981 Cl     88 CCL4  -0.0812 
 544 CL     -27.0729    -4.0292    13.5447 Cl     88 CCL4  -0.0812 
 545 CL     -30.0214    -1.1209     8.4723 Cl     89 CCL4  -0.0812 
 546 C      -29.5891    -2.3867     9.6150 C.3    89 CCL4   0.3246 
 547 CL     -30.8909    -2.3586    10.7573 Cl     89 CCL4  -0.0812 
 548 CL     -28.0176    -2.0242    10.5115 Cl     89 CCL4  -0.0812 
 549 CL     -29.3299    -3.9035     8.8399 Cl     89 CCL4  -0.0812 
 550 CL     -29.7200     2.2997     9.6614 Cl     90 CCL4  -0.0812 
 551 C      -30.0949     2.5066    11.3438 C.3    90 CCL4   0.3246 
 552 CL     -29.1514     3.9305    11.8578 Cl     90 CCL4  -0.0812 
 553 CL     -29.5877     1.0724    12.2192 Cl     90 CCL4  -0.0812 
 554 CL     -31.7751     2.8106    11.7215 Cl     90 CCL4  -0.0812 
 555 CL     -30.4777    16.2298   -19.4570 Cl     91 CCL4  -0.0812 
 556 C      -29.9764    16.2297   -17.8365 C.3    91 CCL4   0.3246 
 557 CL     -30.3128    14.7340   -17.0518 Cl     91 CCL4  -0.0812 
 558 CL     -30.5346    17.5851   -16.9504 Cl     91 CCL4  -0.0812 
 559 CL     -28.1843    16.3562   -17.8588 Cl     91 CCL4  -0.0812 
 560 CL     -18.8595     6.2821    21.7438 Cl     92 CCL4  -0.0812 
 561 C      -19.0281     5.5544    20.1298 C.3    92 CCL4   0.3246 
 562 CL     -20.3909     4.3900    20.0335 Cl     92 CCL4  -0.0812 
 563 CL     -17.4348     4.9220    19.7019 Cl     92 CCL4  -0.0812 
 564 CL     -19.3734     6.9412    19.0249 Cl     92 CCL4  -0.0812 
 565 CL      20.1107    13.0918    19.6249 Cl     93 CCL4  -0.0812 
 566 C       19.8632    11.5211    20.3906 C.3    93 CCL4   0.3246 
 567 CL      18.4844    11.5573    21.4741 Cl     93 CCL4  -0.0812 
 568 CL      21.3203    11.0351    21.3358 Cl     93 CCL4  -0.0812 
 569 CL      19.6405    10.2410    19.1116 Cl     93 CCL4  -0.0812 
 570 CL     -17.3717    16.0653   -13.4929 Cl     94 CCL4  -0.0812 
 571 C      -17.7010    14.4377   -14.1496 C.3    94 CCL4   0.3246 
 572 CL     -18.9519    13.5988   -13.2632 Cl     94 CCL4  -0.0812 
 573 CL     -16.3086    13.4349   -13.9158 Cl     94 CCL4  -0.0812 
 574 CL     -18.1138    14.6865   -15.9003 Cl     94 CCL4  -0.0812 
 575 CL     -17.0868     8.0450   -13.6941 Cl     95 CCL4  -0.0812 
 576 C      -18.5523     8.9208   -14.2188 C.3    95 CCL4   0.3246 
 577 CL     -17.9873    10.1646   -15.3716 Cl     95 CCL4  -0.0812 
 578 CL     -19.4445     9.6697   -12.9201 Cl     95 CCL4  -0.0812 
 579 CL     -19.6538     7.8346   -15.2041 Cl     95 CCL4  -0.0812 
 580 CL     -19.1616    15.2615    -8.6972 Cl     96 CCL4  -0.0812 
 581 C      -19.9182    13.6936    -8.2172 C.3    96 CCL4   0.3246 
 582 CL     -20.0263    12.6401    -9.6726 Cl     96 CCL4  -0.0812 
 583 CL     -21.5982    14.0360    -7.5829 Cl     96 CCL4  -0.0812 
 584 CL     -18.9719    12.7891    -6.9194 Cl     96 CCL4  -0.0812 
 585 CL     -19.5596     9.6901    21.1959 Cl     97 CCL4  -0.0812 
 586 C      -19.0155    11.1993    20.4680 C.3    97 CCL4   0.3246 
 587 CL     -17.7446    11.9800    21.5116 Cl     97 CCL4  -0.0812 
 588 CL     -20.3276    12.4418    20.3729 Cl     97 CCL4  -0.0812 
 589 CL     -18.3474    11.0884    18.9006 Cl     97 CCL4  -0.0812 
 590 CL     -31.9623     6.7519    -2.6847 Cl     98 CCL4  -0.0812 
 591 C      -30.6962     5.4734    -2.3527 C.3    98 CCL4   0.3246 
 592 CL     -29.4890     6.1791    -1.2703 Cl     98 CCL4  -0.0812 
 593 CL     -29.9741     5.0580    -3.9296 Cl     98 CCL4  -0.0812 
 594 CL     -31.4642     4.0609    -1.5548 Cl     98 CCL4  -0.0812 
 595 CL     -31.0252    15.4088    -3.9361 Cl     99 CCL4  -0.0812 
 596 C      -30.2812    14.7102    -2.5824 C.3    99 CCL4   0.3246 
 597 CL     -31.3044    14.7435    -1.1327 Cl     99 CCL4  -0.0812 
 598 CL     -28.9062    15.7302    -2.0760 Cl     99 CCL4  -0.0812 
 599 CL     -29.7319    13.0808    -2.9137 Cl     99 CCL4  -0.0812 
 600 CL     -16.8461     9.5593    -7.6881 Cl    100 CCL4  -0.0812 
 601 C      -17.8088     8.1806    -8.4081 C.3   100 CCL4   0.3246 
 602 CL     -16.9658     7.5370    -9.8620 Cl    100 CCL4  -0.0812 
 603 CL     -19.3768     8.8122    -8.8870 Cl    100 CCL4  -0.0812 
 604 CL     -18.1301     6.7973    -7.2464 Cl    100 CCL4  -0.0812 
 605 CL      19.1306    13.6705    -9.8628 Cl    101 CCL4  -0.0812 
 606 C       20.0315    14.7432    -8.7890 C.3   101 CCL4   0.3246 
 607 CL      21.1914    15.8306    -9.5975 Cl    101 CCL4  -0.0812 
 608 CL      21.0035    13.6585    -7.5411 Cl    101 CCL4  -0.0812 
 609 CL      18.9255    15.7087    -7.8094 Cl    101 CCL4  -0.0812 
 610 CL     -28.2966     9.1441   -11.4814 Cl    102 CCL4  -0.0812 
 611 C      -29.8350     9.5685   -10.8928 C.3   102 CCL4   0.3246 
 612 CL     -30.9169     9.8873   -12.3354 Cl    102 CCL4  -0.0812 
 613 CL     -29.7453    11.0184    -9.9552 Cl    102 CCL4  -0.0812 
 614 CL     -30.5698     8.2855    -9.9655 Cl    102 CCL4  -0.0812 
 615 CL      19.8788    10.4937    -5.0711 Cl    103 CCL4  -0.0812 
 616 C       18.8484     9.5121    -6.0332 C.3   103 CCL4   0.3246 
 617 CL      18.3698    10.3833    -7.5053 Cl    103 CCL4  -0.0812 
 618 CL      17.4380     9.1554    -5.0633 Cl    103 CCL4  -0.0812 
 619 CL      19.6477     8.0291    -6.4470 Cl    103 CCL4  -0.0812 
 620 CL     -26.9206    18.0828    -7.2123 Cl    104 CCL4  -0.0812 
 621 C      -26.3232    16.8805    -6.1057 C.3   104 CCL4   0.3246 
 622 CL     -27.0813    15.3108    -6.5099 Cl    104 CCL4  -0.0812 
 623 CL     -26.7850    17.2876    -4.4031 Cl    104 CCL4  -0.0812 
 624 CL     -24.5596    16.6707    -6.1187 Cl    104 CCL4  -0.0812 
 625 CL     -20.8307    17.9276    -4.8065 Cl    105 CCL4  -0.0812 
 626 C      -19.4815    17.1219    -3.9065 C.3   105 CCL4   0.3246 
 627 CL     -17.8837    17.5123    -4.7292 Cl    105 CCL4  -0.0812 
 628 CL     -19.7326    15.3634    -3.9693 Cl    105 CCL4  -0.0812 
 629 CL     -19.4752    17.8079    -2.2417 Cl    105 CCL4  -0.0812 
 630 CL     -22.3954     7.1381   -12.4517 Cl    106 CCL4  -0.0812 
 631 C      -21.3931     5.6322   -12.2527 C.3   106 CCL4   0.3246 
 632 CL     -22.0506     4.8842   -10.7640 Cl    106 CCL4  -0.0812 
 633 CL     -19.6721     6.0848   -11.7913 Cl    106 CCL4  -0.0812 
 634 CL     -21.4625     4.6504   -13.7587 Cl    106 CCL4  -0.0812 
 635 CL     -19.5918    17.8432   -10.7821 Cl    107 CCL4  -0.0812 
 636 C      -20.5540    18.6341    -9.5205 C.3   107 CCL4   0.3246 
 637 CL     -19.5225    19.2496    -8.2183 Cl    107 CCL4  -0.0812 
 638 CL     -21.7693    17.6523    -8.7829 Cl    107 CCL4  -0.0812 
 639 CL     -21.2637    20.2349   -10.2777 Cl    107 CCL4  -0.0812 
 640 CL      20.5855    18.8771    -3.1251 Cl    108 CCL4  -0.0812 
 641 C       19.9517    19.0097    -4.7840 C.3   108 CCL4   0.3246 
 642 CL      20.9611    18.1964    -5.9706 Cl    108 CCL4  -0.0812 
 643 CL      19.7408    20.8069    -5.2389 Cl    108 CCL4  -0.0812 
 644 CL      18.3905    18.2591    -4.8844 Cl    108 CCL4  -0.0812 
 645 CL     -27.5766    21.3794    -3.5467 Cl    109 CCL4  -0.0812 
 646 C      -27.4654    21.1965    -1.8080 C.3   109 CCL4   0.3246 
 647 CL     -25.7843    21.8768    -1.3751 Cl    109 CCL4  -0.0812 
 648 CL     -27.5730    19.4406    -1.4159 Cl    109 CCL4  -0.0812 
 649 CL     -28.6594    22.1322    -0.9283 Cl    109 CCL4  -0.0812 
 650 CL     -25.3034    19.4943   -18.1167 Cl    110 CCL4  -0.0812 
 651 C      -24.7724    20.8417   -17.1365 C.3   110 CCL4   0.3246 
 652 CL     -25.0194    22.4087   -18.0343 Cl    110 CCL4  -0.0812 
 653 CL     -23.0202    20.6109   -16.8780 Cl    110 CCL4  -0.0812 
 654 CL     -25.7067    20.8936   -15.5632 Cl    110 CCL4  -0.0812 
 655 CL     -27.1373    13.6876   -15.2224 Cl    111 CCL4  -0.0812 
 656 C      -27.6873    12.3156   -14.2646 C.3   111 CCL4   0.3246 
 657 CL     -28.6739    12.8674   -12.8993 Cl    111 CCL4  -0.0812 
 658 CL     -26.2576    11.5158   -13.6630 Cl    111 CCL4  -0.0812 
 659 CL     -28.7242    11.2468   -15.3319 Cl    111 CCL4  -0.0812 
 660 CL     -22.0445    14.7549     0.0988 Cl    112 CCL4  -0.0812 
 661 C      -21.2463    13.4555     1.0148 C.3   112 CCL4   0.3246 
 662 CL     -22.6221    12.6197     1.7379 Cl    112 CCL4  -0.0812 
 663 CL     -20.2269    14.2372     2.1636 Cl    112 CCL4  -0.0812 
 664 CL     -20.4210    12.3905    -0.0324 Cl    112 CCL4  -0.0812 
 665 CL     -22.2961    15.7775    20.9753 Cl    113 CCL4  -0.0812 
 666 C      -20.8243    16.7355    20.8709 C.3   113 CCL4   0.3246 
 667 CL     -19.3438    15.7198    21.0056 Cl    113 CCL4  -0.0812 
 668 CL     -20.7383    18.0222    22.0547 Cl    113 CCL4  -0.0812 
 669 CL     -20.7036    17.5659    19.2706 Cl    113 CCL4  -0.0812 
 670 CL     -23.2969    10.4603   -15.2701 Cl    114 CCL4  -0.0812 
 671 C      -22.5737    12.0430   -15.2324 C.3   114 CCL4   0.3246 
 672 CL     -22.2413    12.4096   -13.4447 Cl    114 CCL4  -0.0812 
 673 CL     -23.7113    13.3082   -15.7570 Cl    114 CCL4  -0.0812 
 674 CL     -21.0895    12.2377   -16.1615 Cl    114 CCL4  -0.0812 
 675 CL     -21.6707    19.2439   -13.9583 Cl    115 CCL4  -0.0812 
 676 C      -22.2089    17.4830   -14.0431 C.3   115 CCL4   0.3246 
 677 CL     -23.6616    17.4846   -15.1119 Cl    115 CCL4  -0.0812 
 678 CL     -22.5130    16.8871   -12.4195 Cl    115 CCL4  -0.0812 
 679 CL     -20.8497    16.4944   -14.6462 Cl    115 CCL4  -0.0812 
 680 CL     -26.3379    13.1273   -19.0483 Cl    116 CCL4  -0.0812 
 681 C      -25.4704    11.6426   -18.9932 C.3   116 CCL4   0.3246 
 682 CL     -25.9894    10.4045   -20.2058 Cl    116 CCL4  -0.0812 
 683 CL     -25.8254    10.8368   -17.3090 Cl    116 CCL4  -0.0812 
 684 CL     -23.6750    11.7991   -19.0360 Cl    116 CCL4  -0.0812 
 685 CL     -27.8219     8.0409   -17.0199 Cl    117 CCL4  -0.0812 
 686 C      -27.4477     7.2226   -15.5049 C.3   117 CCL4   0.3246 
 687 CL     -26.1516     8.0397   -14.6530 Cl    117 CCL4  -0.0812 
 688 CL     -26.9079     5.5316   -15.8004 Cl    117 CCL4  -0.0812 
 689 CL     -28.9320     7.0181   -14.4227 Cl    117 CCL4  -0.0812 
 690 CL     -23.5956     4.8878   -18.7484 Cl    118 CCL4  -0.0812 
 691 C      -23.5118     6.3767   -17.8105 C.3   118 CCL4   0.3246 
 692 CL     -23.5096     6.1771   -16.1094 Cl    118 CCL4  -0.0812 
 693 CL     -24.7969     7.4894   -18.2834 Cl    118 CCL4  -0.0812 
 694 CL     -22.0921     7.4399   -18.3268 Cl    118 CCL4  -0.0812 
 695 CL     -23.9057    13.2222    -9.8241 Cl    119 CCL4  -0.0812 
 696 C      -25.1641    14.3129   -10.4708 C.3   119 CCL4   0.3246 
 697 CL     -26.8703    13.6090    -9.9426 Cl    119 CCL4  -0.0812 
 698 CL     -25.1436    14.3848   -12.2423 Cl    119 CCL4  -0.0812 
 699 CL     -25.2353    15.9184    -9.6864 Cl    119 CCL4  -0.0812 
 700 CL     -27.8918    17.4356   -11.4062 Cl    120 CCL4  -0.0812 
 701 C      -28.5696    17.7852   -12.9695 C.3   120 CCL4   0.3246 
 702 CL     -29.3880    16.2878   -13.4010 Cl    120 CCL4  -0.0812 
 703 CL     -27.4353    18.1966   -14.3027 Cl    120 CCL4  -0.0812 
 704 CL     -29.8098    19.0684   -12.9418 Cl    120 CCL4  -0.0812 
 705 CL     -25.5403    10.2650    -8.9317 Cl    121 CCL4  -0.0812 
 706 C      -24.0613     9.5814    -9.6212 C.3   121 CCL4   0.3246 
 707 CL     -23.8468    10.3441   -11.2602 Cl    121 CCL4  -0.0812 
 708 CL     -24.1659     7.8298    -9.7324 Cl    121 CCL4  -0.0812 
 709 CL     -22.6496     9.9691    -8.6363 Cl    121 CCL4  -0.0812 
 710 CL     -23.0453     4.6116    -5.5195 Cl    122 CCL4  -0.0812 
 711 C      -21.5621     5.4204    -6.1149 C.3   122 CCL4   0.3246 
 712 CL     -22.0908     6.6372    -7.3136 Cl    122 CCL4  -0.0812 
 713 CL     -20.4596     4.2232    -6.7856 Cl    122 CCL4  -0.0812 
 714 CL     -20.7397     6.0889    -4.7168 Cl    122 CCL4  -0.0812 
 715 CL     -24.0507    19.1384    -0.1050 Cl    123 CCL4  -0.0812 
 716 C      -22.4532    18.7699    -0.7834 C.3   123 CCL4   0.3246 
 717 CL     -21.8053    20.2676    -1.6385 Cl    123 CCL4  -0.0812 
 718 CL     -22.6409    17.4493    -1.9143 Cl    123 CCL4  -0.0812 
 719 CL     -21.3007    18.2778     0.5660 Cl    123 CCL4  -0.0812 
 720 CL     -23.7105    12.1045    -1.6973 Cl    124 CCL4  -0.0812 
 721 C      -24.7404    12.8799    -2.9523 C.3   124 CCL4   0.3246 
 722 CL     -25.7907    11.6492    -3.6521 Cl    124 CCL4  -0.0812 
 723 CL     -23.7858    13.6826    -4.2011 Cl    124 CCL4  -0.0812 
 724 CL     -25.7712    14.0766    -1.9985 Cl    124 CCL4  -0.0812 
 725 CL     -28.3112     8.2774    -4.9616 Cl    125 CCL4  -0.0812 
 726 C      -27.1969     7.6437    -6.2640 C.3   125 CCL4   0.3246 
 727 CL     -26.9903     5.9112    -6.0600 Cl    125 CCL4  -0.0812 
 728 CL     -25.7515     8.5464    -5.9015 Cl    125 CCL4  -0.0812 
 729 CL     -27.8529     8.1434    -7.8266 Cl    125 CCL4  -0.0812 
 730 CL     -21.0136    11.6186    -3.5965 Cl    126 CCL4  -0.0812 
 731 C      -21.0191     9.9715    -4.0196 C.3   126 CCL4   0.3246 
 732 CL     -20.5549     9.0493    -2.5212 Cl    126 CCL4  -0.0812 
 733 CL     -19.8651     9.5984    -5.2277 Cl    126 CCL4  -0.0812 
 734 CL     -22.6195     9.4768    -4.4329 Cl    126 CCL4  -0.0812 
 735 CL     -25.7551     8.3629    -1.5368 Cl    127 CCL4  -0.0812 
 736 C      -25.0866     6.7054    -1.7921 C.3   127 CCL4   0.3246 
 737 CL     -23.5141     6.7960    -2.5400 Cl    127 CCL4  -0.0812 
 738 CL     -26.1447     5.7559    -2.8634 Cl    127 CCL4  -0.0812 
 739 CL     -24.8185     6.0099    -0.1336 Cl    127 CCL4  -0.0812 
 740 CL     -28.9133    19.1218    20.1419 Cl    128 CCL4  -0.0812 
 741 C      -29.3385    20.9197    19.7706 C.3   128 CCL4   0.3246 
 742 CL     -28.4288    22.0363    20.7816 Cl    128 CCL4  -0.0812 
 743 CL     -31.0729    21.1405    20.1893 Cl    128 CCL4  -0.0812 
 744 CL     -28.9423    21.2746    18.1055 Cl    128 CCL4  -0.0812 
 745 CL     -30.0214    23.8791   -16.5277 Cl    129 CCL4  -0.0812 
 746 C      -29.5891    22.6133   -15.3850 C.3   129 CCL4   0.3246 
 747 CL     -30.8909    22.6414   -14.2427 Cl    129 CCL4  -0.0812 
 748 CL     -28.0176    22.9758   -14.4885 Cl    129 CCL4  -0.0812 
 749 CL     -29.3299    21.0965   -16.1601 Cl    129 CCL4  -0.0812 
 750 CL     -30.4777    16.2298     5.5430 Cl    130 CCL4  -0.0812 
 751 C      -29.9764    16.2297     7.1635 C.3   130 CCL4   0.3246 
 752 CL     -30.3128    14.7340     7.9482 Cl    130 CCL4  -0.0812 
 753 CL     -30.5346    17.5851     8.0496 Cl    130 CCL4  -0.0812 
 754 CL     -28.1843    16.3562     7.1412 Cl    130 CCL4  -0.0812 
 755 CL     -18.8595     6.2821     6.7438 Cl    131 CCL4  -0.0812 
 756 C      -19.0281     5.5544     5.1298 C.3   131 CCL4   0.3246 
 757 CL     -20.3909     4.3900     5.0335 Cl    131 CCL4  -0.0812 
 758 CL     -17.4348     4.9220     4.7019 Cl    131 CCL4  -0.0812 
 759 CL     -19.3734     6.9412     4.0249 Cl    131 CCL4  -0.0812 
 760 CL     -28.4220    13.8167     0.8693 Cl    132 CCL4  -0.0812 
 761 C      -27.4212    12.4906     1.6230 C.3   132 CCL4   0.3246 
 762 CL     -27.0041    11.4120     0.2793 Cl    132 CCL4  -0.0812 
 763 CL     -28.3574    11.6939     2.8605 Cl    132 CCL4  -0.0812 
 764 CL     -25.9936    13.2197     2.3664 Cl    132 CCL4  -0.0812 
 765 CL      20.1107    13.0918     4.6249 Cl    133 CCL4  -0.0812 
 766 C       19.8632    11.5211     5.3906 C.3   133 CCL4   0.3246 
 767 CL      18.4844    11.5573     6.4741 Cl    133 CCL4  -0.0812 
 768 CL      21.3203    11.0351     6.3358 Cl    133 CCL4  -0.0812 
 769 CL      19.6405    10.2410     4.1116 Cl    133 CCL4  -0.0812 
 770 CL     -17.3717    16.0653    11.5071 Cl    134 CCL4  -0.0812 
 771 C      -17.7010    14.4377    10.8504 C.3   134 CCL4   0.3246 
 772 CL     -18.9519    13.5988    11.7368 Cl    134 CCL4  -0.0812 
 773 CL     -16.3086    13.4349    11.0842 Cl    134 CCL4  -0.0812 
 774 CL     -18.1138    14.6865     9.0997 Cl    134 CCL4  -0.0812 
 775 CL     -17.0868     8.0450    11.3059 Cl    135 CCL4  -0.0812 
 776 C      -18.5523     8.9208    10.7812 C.3   135 CCL4   0.3246 
 777 CL     -17.9873    10.1646     9.6284 Cl    135 CCL4  -0.0812 
 778 CL     -19.4445     9.6697    12.0799 Cl    135 CCL4  -0.0812 
 779 CL     -19.6538     7.8346     9.7959 Cl    135 CCL4  -0.0812 
 780 CL     -19.5596     9.6901     6.1959 Cl    136 CCL4  -0.0812 
 781 C      -19.0155    11.1993     5.4680 C.3   136 CCL4   0.3246 
 782 CL     -17.7446    11.9800     6.5116 Cl    136 CCL4  -0.0812 
 783 CL     -20.3276    12.4418     5.3729 Cl    136 CCL4  -0.0812 
 784 CL     -18.3474    11.0884     3.9006 Cl    136 CCL4  -0.0812 
 785 CL      19.1306    13.6705    15.1372 Cl    137 CCL4  -0.0812 
 786 C       20.0315    14.7432    16.2110 C.3   137 CCL4   0.3246 
 787 CL      21.1914    15.8306    15.4025 Cl    137 CCL4  -0.0812 
 788 CL      21.0035    13.6585    17.4589 Cl    137 CCL4  -0.0812 
 789 CL      18.9255    15.7087    17.1906 Cl    137 CCL4  -0.0812 
 790 CL     -28.2966     9.1441    13.5186 Cl    138 CCL4  -0.0812 
 791 C      -29.8350     9.5685    14.1072 C.3   138 CCL4   0.3246 
 792 CL     -30.9169     9.8873    12.6646 Cl    138 CCL4  -0.0812 
 793 CL     -29.7453    11.0184    15.0448 Cl    138 CCL4  -0.0812 
 794 CL     -30.5698     8.2855    15.0345 Cl    138 CCL4  -0.0812 
 795 CL     -22.3954     7.1381    12.5483 Cl    139 CCL4  -0.0812 
 796 C      -21.3931     5.6322    12.7473 C.3   139 CCL4   0.3246 
 797 CL     -22.0506     4.8842    14.2360 Cl    139 CCL4  -0.0812 
 798 CL     -19.6721     6.0848    13.2087 Cl    139 CCL4  -0.0812 
 799 CL     -21.4625     4.6504    11.2413 Cl    139 CCL4  -0.0812 
 800 CL     -19.5918    17.8432    14.2179 Cl    140 CCL4  -0.0812 
 801 C      -20.5540    18.6341    15.4795 C.3   140 CCL4   0.3246 
 802 CL     -19.5225    19.2496    16.7817 Cl    140 CCL4  -0.0812 
 803 CL     -21.7693    17.6523    16.2171 Cl    140 CCL4  -0.0812 
 804 CL     -21.2637    20.2349    14.7223 Cl    140 CCL4  -0.0812 
 805 CL      21.8904    17.5129     2.0031 Cl    141 CCL4  -0.0812 
 806 C       20.1888    17.5711     1.7177 C.3   141 CCL4   0.3246 
 807 CL      19.4829    16.1078     2.1766 Cl    141 CCL4  -0.0812 
 808 CL      19.8531    18.0215    -0.0222 Cl    141 CCL4  -0.0812 
 809 CL      19.5341    18.9394     2.7346 Cl    141 CCL4  -0.0812 
 810 CL     -25.3034    19.4943     6.8833 Cl    142 CCL4  -0.0812 
 811 C      -24.7724    20.8417     7.8635 C.3   142 CCL4   0.3246 
 812 CL     -25.0194    22.4087     6.9657 Cl    142 CCL4  -0.0812 
 813 CL     -23.0202    20.6109     8.1220 Cl    142 CCL4  -0.0812 
 814 CL     -25.7067    20.8936     9.4368 Cl    142 CCL4  -0.0812 
 815 CL     -27.1373    13.6876     9.7776 Cl    143 CCL4  -0.0812 
 816 C      -27.6873    12.3156    10.7354 C.3   143 CCL4   0.3246 
 817 CL     -28.6739    12.8674    12.1007 Cl    143 CCL4  -0.0812 
 818 CL     -26.2576    11.5158    11.3370 Cl    143 CCL4  -0.0812 
 819 CL     -28.7242    11.2468     9.6681 Cl    143 CCL4  -0.0812 
 820 CL     -22.2961    15.7775     5.9753 Cl    144 CCL4  -0.0812 
 821 C      -20.8243    16.7355     5.8709 C.3   144 CCL4   0.3246 
 822 CL     -19.3438    15.7198     6.0056 Cl    144 CCL4  -0.0812 
 823 CL     -20.7383    18.0222     7.0547 Cl    144 CCL4  -0.0812 
 824 CL     -20.7036    17.5659     4.2706 Cl    144 CCL4  -0.0812 
 825 CL     -23.2969    10.4603     9.7299 Cl    145 CCL4  -0.0812 
 826 C      -22.5737    12.0430     9.7676 C.3   145 CCL4   0.3246 
 827 CL     -22.2413    12.4096    11.5553 Cl    145 CCL4  -0.0812 
 828 CL     -23.7113    13.3082     9.2430 Cl    145 CCL4  -0.0812 
 829 CL     -21.0895    12.2377     8.8385 Cl    145 CCL4  -0.0812 
 830 CL     -21.6707    19.2439    11.0417 Cl    146 CCL4  -0.0812 
 831 C      -22.2089    17.4830    10.9569 C.3   146 CCL4   0.3246 
 832 CL     -23.6616    17.4846     9.8881 Cl    146 CCL4  -0.0812 
 833 CL     -22.5130    16.8871    12.5805 Cl    146 CCL4  -0.0812 
 834 CL     -20.8497    16.4944    10.3538 Cl    146 CCL4  -0.0812 
 835 CL     -28.8247     5.3772     2.6698 Cl    147 CCL4  -0.0812 
 836 C      -27.9336     6.9181     3.0131 C.3   147 CCL4   0.3246 
 837 CL     -26.4167     6.5500     3.9797 Cl    147 CCL4  -0.0812 
 838 CL     -29.0203     8.0089     3.9226 Cl    147 CCL4  -0.0812 
 839 CL     -27.4953     7.6965     1.4755 Cl    147 CCL4  -0.0812 
 840 CL     -21.6232     9.5612     2.9596 Cl    148 CCL4  -0.0812 
 841 C      -22.8344     8.4888     2.0417 C.3   148 CCL4   0.3246 
 842 CL     -23.0754     6.9841     2.9794 Cl    148 CCL4  -0.0812 
 843 CL     -22.1141     8.1018     0.4283 Cl    148 CCL4  -0.0812 
 844 CL     -24.3905     9.3334     2.0192 Cl    148 CCL4  -0.0812 
 845 CL     -26.3379    13.1273     5.9517 Cl    149 CCL4  -0.0812 
 846 C      -25.4704    11.6426     6.0068 C.3   149 CCL4   0.3246 
 847 CL     -25.9894    10.4045     4.7942 Cl    149 CCL4  -0.0812 
 848 CL     -25.8254    10.8368     7.6910 Cl    149 CCL4  -0.0812 
 849 CL     -23.6750    11.7991     5.9640 Cl    149 CCL4  -0.0812 
 850 CL     -27.8219     8.0409     7.9801 Cl    150 CCL4  -0.0812 
 851 C      -27.4477     7.2226     9.4951 C.3   150 CCL4   0.3246 
 852 CL     -26.1516     8.0397    10.3470 Cl    150 CCL4  -0.0812 
 853 CL     -26.9079     5.5316     9.1996 Cl    150 CCL4  -0.0812 
 854 CL     -28.9320     7.0181    10.5773 Cl    150 CCL4  -0.0812 
 855 CL     -23.9998    16.9485     3.0086 Cl    151 CCL4  -0.0812 
 856 C      -25.6847    17.2551     2.5650 C.3   151 CCL4   0.3246 
 857 CL     -26.7126    16.4412     3.7542 Cl    151 CCL4  -0.0812 
 858 CL     -26.1007    16.6574     0.9226 Cl    151 CCL4  -0.0812 
 859 CL     -26.2175    18.9477     2.6638 Cl    151 CCL4  -0.0812 
 860 CL     -23.5956     4.8878     6.2516 Cl    152 CCL4  -0.0812 
 861 C      -23.5118     6.3767     7.1895 C.3   152 CCL4   0.3246 
 862 CL     -23.5096     6.1771     8.8906 Cl    152 CCL4  -0.0812 
 863 CL     -24.7969     7.4894     6.7166 Cl    152 CCL4  -0.0812 
 864 CL     -22.0921     7.4399     6.6732 Cl    152 CCL4  -0.0812 
 865 CL     -23.9057    13.2222    15.1759 Cl    153 CCL4  -0.0812 
 866 C      -25.1641    14.3129    14.5292 C.3   153 CCL4   0.3246 
 867 CL     -26.8703    13.6090    15.0574 Cl    153 CCL4  -0.0812 
 868 CL     -25.1436    14.3848    12.7577 Cl    153 CCL4  -0.0812 
 869 CL     -25.2353    15.9184    15.3136 Cl    153 CCL4  -0.0812 
 870 CL     -27.8918    17.4356    13.5938 Cl    154 CCL4  -0.0812 
 871 C      -28.5696    17.7852    12.0305 C.3   154 CCL4   0.3246 
 872 CL     -29.3880    16.2878    11.5990 Cl    154 CCL4  -0.0812 
 873 CL     -27.4353    18.1966    10.6973 Cl    154 CCL4  -0.0812 
 874 CL     -29.8098    19.0684    12.0582 Cl    154 CCL4  -0.0812 
 875 CL     -25.5403    10.2650    16.0683 Cl    155 CCL4  -0.0812 
 876 C      -24.0613     9.5814    15.3788 C.3   155 CCL4   0.3246 
 877 CL     -23.8468    10.3441    13.7398 Cl    155 CCL4  -0.0812 
 878 CL     -24.1659     7.8298    15.2676 Cl    155 CCL4  -0.0812 
 879 CL     -22.6496     9.9691    16.3637 Cl    155 CCL4  -0.0812 
 880 CL     -28.9133    19.1218     5.1419 Cl    156 CCL4  -0.0812 
 881 C      -29.3385    20.9197     4.7706 C.3   156 CCL4   0.3246 
 882 CL     -28.4288    22.0363     5.7816 Cl    156 CCL4  -0.0812 
 883 CL     -31.0729    21.1405     5.1893 Cl    156 CCL4  -0.0812 
 884 CL     -28.9423    21.2746     3.1055 Cl    156 CCL4  -0.0812 
 885 CL     -30.0214    23.8791     8.4723 Cl    157 CCL4  -0.0812 
 886 C      -29.5891    22.6133     9.6150 C.3   157 CCL4   0.3246 
 887 CL     -30.8909    22.6414    10.7573 Cl    157 CCL4  -0.0812 
 888 CL     -28.0176    22.9758    10.5115 Cl    157 CCL4  -0.0812 
 889 CL     -29.3299    21.0965     8.8399 Cl    157 CCL4  -0.0812 
 890 CL     -17.1346    -6.8160   -16.3162 Cl    158 CCL4  -0.0812 
 891 C      -17.3689    -5.1745   -15.6520 C.3   158 CCL4   0.3246 
 892 CL     -18.8637    -4.5476   -16.3602 Cl    158 CCL4  -0.0812 
 893 CL     -15.9459    -4.1180   -15.8745 Cl    158 CCL4  -0.0812 
 894 CL     -17.5806    -5.3853   -13.8886 Cl    158 CCL4  -0.0812 
 895 CL      -5.4777    -8.7702   -19.4570 Cl    159 CCL4  -0.0812 
 896 C       -4.9764    -8.7703   -17.8365 C.3   159 CCL4   0.3246 
 897 CL      -5.3128   -10.2660   -17.0518 Cl    159 CCL4  -0.0812 
 898 CL      -5.5346    -7.4149   -16.9504 Cl    159 CCL4  -0.0812 
 899 CL      -3.1843    -8.6438   -17.8588 Cl    159 CCL4  -0.0812 
 900 CL      -7.5930    22.0603   -13.6693 Cl    160 CCL4  -0.0812 
 901 C       -8.1908    23.0781   -15.0645 C.3   160 CCL4   0.3246 
 902 CL      -9.4293    22.2994   -16.1471 Cl    160 CCL4  -0.0812 
 903 CL      -6.8132    23.6389   -16.0636 Cl    160 CCL4  -0.0812 
 904 CL      -8.9216    24.6169   -14.3240 Cl    160 CCL4  -0.0812 
 905 CL     -13.3246    -6.4636   -14.4225 Cl    161 CCL4  -0.0812 
 906 C      -13.0384    -8.2186   -14.2953 C.3   161 CCL4   0.3246 
 907 CL     -13.2831    -8.7338   -12.6045 Cl    161 CCL4  -0.0812 
 908 CL     -11.4992    -8.8180   -14.8588 Cl    161 CCL4  -0.0812 
 909 CL     -14.2924    -9.0318   -15.2632 Cl    161 CCL4  -0.0812 
 910 CL      -6.2199   -14.3115     0.5910 Cl    162 CCL4  -0.0812 
 911 C       -7.8917   -13.7143     0.4641 C.3   162 CCL4   0.3246 
 912 CL      -8.2476   -13.4623    -1.3295 Cl    162 CCL4  -0.0812 
 913 CL      -8.2212   -12.1907     1.3038 Cl    162 CCL4  -0.0812 
 914 CL      -9.1255   -14.9373     0.8890 Cl    162 CCL4  -0.0812 
 915 CL     -11.8752     2.4184   -14.2401 Cl    163 CCL4  -0.0812 
 916 C      -11.3410     3.9798   -14.9255 C.3   163 CCL4   0.3246 
 917 CL     -12.2692     5.3948   -14.3918 Cl    163 CCL4  -0.0812 
 918 CL     -11.1944     3.9900   -16.6730 Cl    163 CCL4  -0.0812 
 919 CL      -9.7076     4.2455   -14.2684 Cl    163 CCL4  -0.0812 
 920 CL      -7.8788    -9.3813   -14.5898 Cl    164 CCL4  -0.0812 
 921 C       -8.3873   -11.1086   -14.3736 C.3   164 CCL4   0.3246 
 922 CL      -6.9603   -12.0520   -13.9094 Cl    164 CCL4  -0.0812 
 923 CL      -9.0485   -11.7913   -15.8260 Cl    164 CCL4  -0.0812 
 924 CL      -9.4830   -11.2240   -12.9227 Cl    164 CCL4  -0.0812 
 925 CL     -12.4723    23.3754   -14.6444 Cl    165 CCL4  -0.0812 
 926 C      -13.2162    23.8661   -13.0932 C.3   165 CCL4   0.3246 
 927 CL     -11.9923    24.3547   -12.0204 Cl    165 CCL4  -0.0812 
 928 CL     -14.0932    22.4525   -12.4772 Cl    165 CCL4  -0.0812 
 929 CL     -14.4068    25.2087   -13.3980 Cl    165 CCL4  -0.0812 
 930 CL       3.6715    -0.9624   -17.1307 Cl    166 CCL4  -0.0812 
 931 C        3.6262     0.6578   -17.8130 C.3   166 CCL4   0.3246 
 932 CL       3.8712     1.9322   -16.4558 Cl    166 CCL4  -0.0812 
 933 CL       2.0107     1.0536   -18.4681 Cl    166 CCL4  -0.0812 
 934 CL       4.7925     1.0834   -19.0688 Cl    166 CCL4  -0.0812 
 935 CL      -4.3484     5.1508   -18.4977 Cl    167 CCL4  -0.0812 
 936 C       -6.1473     4.7352   -18.5020 C.3   167 CCL4   0.3246 
 937 CL      -6.3576     3.0358   -19.1098 Cl    167 CCL4  -0.0812 
 938 CL      -6.9904     5.8568   -19.5531 Cl    167 CCL4  -0.0812 
 939 CL      -6.8183     5.0182   -16.8374 Cl    167 CCL4  -0.0812 
 940 CL     -12.4317     2.8094    20.4637 Cl    168 CCL4  -0.0812 
 941 C      -10.9101     3.0986    19.6058 C.3   168 CCL4   0.3246 
 942 CL     -10.5738     4.8705    20.0449 Cl    168 CCL4  -0.0812 
 943 CL     -11.1445     3.0307    17.8554 Cl    168 CCL4  -0.0812 
 944 CL      -9.5498     2.0126    19.9889 Cl    168 CCL4  -0.0812 
 945 CL     -10.4245    -9.1999     0.9918 Cl    169 CCL4  -0.0812 
 946 C      -10.7305    -9.0498    -0.7134 C.3   169 CCL4   0.3246 
 947 CL      -9.6601    -7.8815    -1.4964 Cl    169 CCL4  -0.0812 
 948 CL     -12.4009    -8.5768    -1.0613 Cl    169 CCL4  -0.0812 
 949 CL     -10.5658   -10.6720    -1.5295 Cl    169 CCL4  -0.0812 
 950 CL     -17.5259    -7.6096     1.3805 Cl    170 CCL4  -0.0812 
 951 C      -16.8236    -8.6074     0.0246 C.3   170 CCL4   0.3246 
 952 CL     -15.4399    -9.4434     0.6989 Cl    170 CCL4  -0.0812 
 953 CL     -16.2688    -7.4303    -1.1456 Cl    170 CCL4  -0.0812 
 954 CL     -17.9400    -9.7753    -0.5867 Cl    170 CCL4  -0.0812 
 955 CL      -6.2479   -11.9082    19.6249 Cl    171 CCL4  -0.0812 
 956 C       -6.4954   -13.4789    20.3906 C.3   171 CCL4   0.3246 
 957 CL      -7.8742   -13.4427    21.4741 Cl    171 CCL4  -0.0812 
 958 CL      -5.0383   -13.9649    21.3358 Cl    171 CCL4  -0.0812 
 959 CL      -6.7181   -14.7590    19.1116 Cl    171 CCL4  -0.0812 
 960 CL      -9.4506    -7.2937    19.6769 Cl    172 CCL4  -0.0812 
 961 C       -9.8367    -8.7488    20.7249 C.3   172 CCL4   0.3246 
 962 CL     -11.5402    -8.7235    21.3354 Cl    172 CCL4  -0.0812 
 963 CL      -8.7103    -8.8934    22.1235 Cl    172 CCL4  -0.0812 
 964 CL      -9.4534   -10.1523    19.6959 Cl    172 CCL4  -0.0812 
 965 CL     -11.5995   -14.3628   -17.4067 Cl    173 CCL4  -0.0812 
 966 C      -12.6136   -13.1235   -16.6828 C.3   173 CCL4   0.3246 
 967 CL     -12.2843   -11.5984   -17.5264 Cl    173 CCL4  -0.0812 
 968 CL     -11.9927   -12.8795   -14.9647 Cl    173 CCL4  -0.0812 
 969 CL     -14.2891   -13.6500   -16.7101 Cl    173 CCL4  -0.0812 
 970 CL       7.6283    -8.9347   -13.4929 Cl    174 CCL4  -0.0812 
 971 C        7.2990   -10.5623   -14.1496 C.3   174 CCL4   0.3246 
 972 CL       6.0481   -11.4012   -13.2632 Cl    174 CCL4  -0.0812 
 973 CL       8.6914   -11.5651   -13.9158 Cl    174 CCL4  -0.0812 
 974 CL       6.8862   -10.3135   -15.9003 Cl    174 CCL4  -0.0812 
 975 CL       7.9132    23.0450   -13.6941 Cl    175 CCL4  -0.0812 
 976 C        6.4477    23.9208   -14.2188 C.3   175 CCL4   0.3246 
 977 CL       7.0127    25.1646   -15.3716 Cl    175 CCL4  -0.0812 
 978 CL       5.5555    24.6697   -12.9201 Cl    175 CCL4  -0.0812 
 979 CL       5.3462    22.8346   -15.2041 Cl    175 CCL4  -0.0812 
 980 CL       5.8384    -9.7385    -8.6972 Cl    176 CCL4  -0.0812 
 981 C        5.0818   -11.3064    -8.2172 C.3   176 CCL4   0.3246 
 982 CL       4.9737   -12.3599    -9.6726 Cl    176 CCL4  -0.0812 
 983 CL       3.4018   -10.9640    -7.5829 Cl    176 CCL4  -0.0812 
 984 CL       6.0281   -12.2109    -6.9194 Cl    176 CCL4  -0.0812 
 985 CL     -15.4870     4.7428   -15.0379 Cl    177 CCL4  -0.0812 
 986 C      -16.8440     3.9799   -14.1485 C.3   177 CCL4   0.3246 
 987 CL     -18.3629     4.5625   -14.9108 Cl    177 CCL4  -0.0812 
 988 CL     -16.8349     4.5713   -12.4979 Cl    177 CCL4  -0.0812 
 989 CL     -16.5757     2.2426   -14.2436 Cl    177 CCL4  -0.0812 
 990 CL       5.4404   -15.3099    21.1959 Cl    178 CCL4  -0.0812 
 991 C        5.9845   -13.8007    20.4680 C.3   178 CCL4   0.3246 
 992 CL       7.2554   -13.0200    21.5116 Cl    178 CCL4  -0.0812 
 993 CL       4.6724   -12.5582    20.3729 Cl    178 CCL4  -0.0812 
 994 CL       6.6526   -13.9116    18.9006 Cl    178 CCL4  -0.0812 
 995 CL     -12.9873    25.1087    -6.0223 Cl    179 CCL4  -0.0812 
 996 C      -12.5150    23.6428    -7.0121 C.3   179 CCL4   0.3246 
 997 CL     -14.0591    23.1261    -7.7649 Cl    179 CCL4  -0.0812 
 998 CL     -11.7375    22.3226    -6.0331 Cl    179 CCL4  -0.0812 
 999 CL     -11.4357    24.2278    -8.2693 Cl    179 CCL4  -0.0812 
1000 CL      -6.0252    -9.5912    -3.9361 Cl    180 CCL4  -0.0812 
1001 C       -5.2812   -10.2898    -2.5824 C.3   180 CCL4   0.3246 
1002 CL      -6.3044   -10.2565    -1.1327 Cl    180 CCL4  -0.0812 
1003 CL      -3.9062    -9.2698    -2.0760 Cl    180 CCL4  -0.0812 
1004 CL      -4.7319   -11.9192    -2.9137 Cl    180 CCL4  -0.0812 
1005 CL       8.1539    24.5593    -7.6881 Cl    181 CCL4  -0.0812 
1006 C        7.1912    23.1806    -8.4081 C.3   181 CCL4   0.3246 
1007 CL       8.0342    22.5370    -9.8620 Cl    181 CCL4  -0.0812 
1008 CL       5.6232    23.8122    -8.8870 Cl    181 CCL4  -0.0812 
1009 CL       6.8699    21.7973    -7.2464 Cl    181 CCL4  -0.0812 
1010 CL      -7.2280   -11.3295    -9.8628 Cl    182 CCL4  -0.0812 
1011 C       -6.3271   -10.2568    -8.7890 C.3   182 CCL4   0.3246 
1012 CL      -5.1672    -9.1694    -9.5975 Cl    182 CCL4  -0.0812 
1013 CL      -5.3551   -11.3415    -7.5411 Cl    182 CCL4  -0.0812 
1014 CL      -7.4331    -9.2913    -7.8094 Cl    182 CCL4  -0.0812 
1015 CL      -8.3053    -8.0099   -11.0444 Cl    183 CCL4  -0.0812 
1016 C       -9.8793    -7.7323   -10.1749 C.3   183 CCL4   0.3246 
1017 CL      -9.6060    -6.7842    -8.7425 Cl    183 CCL4  -0.0812 
1018 CL     -10.5806    -9.3495    -9.7294 Cl    183 CCL4  -0.0812 
1019 CL     -10.9091    -6.8502   -11.2266 Cl    183 CCL4  -0.0812 
1020 CL      -3.2966    24.1441   -11.4814 Cl    184 CCL4  -0.0812 
1021 C       -4.8350    24.5685   -10.8928 C.3   184 CCL4   0.3246 
1022 CL      -5.9169    24.8873   -12.3354 Cl    184 CCL4  -0.0812 
1023 CL      -4.7453    26.0184    -9.9552 Cl    184 CCL4  -0.0812 
1024 CL      -5.5698    23.2855    -9.9655 Cl    184 CCL4  -0.0812 
1025 CL      -9.9976     1.6938    -5.0725 Cl    185 CCL4  -0.0812 
1026 C      -10.5866     3.3036    -4.3545 C.3   185 CCL4   0.3246 
1027 CL     -10.4561     3.0578    -2.6089 Cl    185 CCL4  -0.0812 
1028 CL     -12.1674     3.8823    -4.7501 Cl    185 CCL4  -0.0812 
1029 CL      -9.3586     4.5896    -4.7760 Cl    185 CCL4  -0.0812 
1030 CL      -6.4798    25.4937    -5.0711 Cl    186 CCL4  -0.0812 
1031 C       -7.5102    24.5121    -6.0332 C.3   186 CCL4   0.3246 
1032 CL      -7.9888    25.3833    -7.5053 Cl    186 CCL4  -0.0812 
1033 CL      -8.9206    24.1554    -5.0633 Cl    186 CCL4  -0.0812 
1034 CL      -6.7109    23.0291    -6.4470 Cl    186 CCL4  -0.0812 
1035 CL      -1.9206    -6.9172    -7.2123 Cl    187 CCL4  -0.0812 
1036 C       -1.3232    -8.1195    -6.1057 C.3   187 CCL4   0.3246 
1037 CL      -2.0813    -9.6892    -6.5099 Cl    187 CCL4  -0.0812 
1038 CL      -1.7850    -7.7124    -4.4031 Cl    187 CCL4  -0.0812 
1039 CL       0.4404    -8.3293    -6.1187 Cl    187 CCL4  -0.0812 
1040 CL     -12.2118   -11.5840    -4.2976 Cl    188 CCL4  -0.0812 
1041 C      -10.7268   -11.2967    -5.2408 C.3   188 CCL4   0.3246 
1042 CL     -11.0978   -11.6309    -6.9262 Cl    188 CCL4  -0.0812 
1043 CL      -9.5243   -12.3636    -4.5911 Cl    188 CCL4  -0.0812 
1044 CL     -10.3007    -9.5294    -5.1349 Cl    188 CCL4  -0.0812 
1045 CL       4.1693    -7.0724    -4.8065 Cl    189 CCL4  -0.0812 
1046 C        5.5185    -7.8781    -3.9065 C.3   189 CCL4   0.3246 
1047 CL       7.1163    -7.4877    -4.7292 Cl    189 CCL4  -0.0812 
1048 CL       5.2674    -9.6366    -3.9693 Cl    189 CCL4  -0.0812 
1049 CL       5.5248    -7.1921    -2.2417 Cl    189 CCL4  -0.0812 
1050 CL     -13.9098   -11.8615   -11.0227 Cl    190 CCL4  -0.0812 
1051 C      -15.0050   -12.8238   -10.0877 C.3   190 CCL4   0.3246 
1052 CL     -16.6914   -12.5312   -10.5532 Cl    190 CCL4  -0.0812 
1053 CL     -14.9284   -12.2629    -8.4530 Cl    190 CCL4  -0.0812 
1054 CL     -14.5874   -14.5366   -10.1980 Cl    190 CCL4  -0.0812 
1055 CL       6.6740     1.3877    -7.9349 Cl    191 CCL4  -0.0812 
1056 C        7.1199     2.2343    -9.4251 C.3   191 CCL4   0.3246 
1057 CL       7.7965     3.8276    -8.9324 Cl    191 CCL4  -0.0812 
1058 CL       5.5247     2.4912   -10.1749 Cl    191 CCL4  -0.0812 
1059 CL       8.1916     1.3899   -10.5842 Cl    191 CCL4  -0.0812 
1060 CL     -10.7166    22.7571    -2.6845 Cl    192 CCL4  -0.0812 
1061 C      -11.9985    23.8456    -2.0557 C.3   192 CCL4   0.3246 
1062 CL     -12.2255    23.3116    -0.3455 Cl    192 CCL4  -0.0812 
1063 CL     -13.4463    23.7211    -3.0248 Cl    192 CCL4  -0.0812 
1064 CL     -11.4737    25.5487    -2.0815 Cl    192 CCL4  -0.0812 
1065 CL      -8.2626    -3.6476   -16.6106 Cl    193 CCL4  -0.0812 
1066 C       -8.9529    -4.7778   -15.4142 C.3   193 CCL4   0.3246 
1067 CL     -10.0890    -5.8731   -16.4130 Cl    193 CCL4  -0.0812 
1068 CL      -9.9057    -3.7290   -14.2632 Cl    193 CCL4  -0.0812 
1069 CL      -7.7841    -5.8468   -14.6498 Cl    193 CCL4  -0.0812 
1070 CL      -8.9589     0.3547    -9.2290 Cl    194 CCL4  -0.0812 
1071 C       -9.3470     0.0391   -10.9859 C.3   194 CCL4   0.3246 
1072 CL     -10.5460    -1.3823   -11.0026 Cl    194 CCL4  -0.0812 
1073 CL      -7.8038    -0.5481   -11.7488 Cl    194 CCL4  -0.0812 
1074 CL      -9.9910     1.4204   -11.7356 Cl    194 CCL4  -0.0812 
1075 CL     -12.8726    -0.9021   -13.8131 Cl    195 CCL4  -0.0812 
1076 C      -13.9972    -1.6932   -12.7167 C.3   195 CCL4   0.3246 
1077 CL     -13.5982    -3.3745   -12.4605 Cl    195 CCL4  -0.0812 
1078 CL     -15.6415    -1.5708   -13.4632 Cl    195 CCL4  -0.0812 
1079 CL     -14.0061    -0.9333   -11.0924 Cl    195 CCL4  -0.0812 
1080 CL       7.1635    -4.0134    -3.0232 Cl    196 CCL4  -0.0812 
1081 C        7.0814    -3.2517    -1.4691 C.3   196 CCL4   0.3246 
1082 CL       6.2617    -4.3143    -0.2662 Cl    196 CCL4  -0.0812 
1083 CL       6.1977    -1.7695    -1.6050 Cl    196 CCL4  -0.0812 
1084 CL       8.7460    -2.9643    -0.8733 Cl    196 CCL4  -0.0812 
1085 CL      -8.1451    -0.6699   -18.1758 Cl    197 CCL4  -0.0812 
1086 C       -9.1366     0.1603   -16.8968 C.3   197 CCL4   0.3246 
1087 CL      -9.0589    -0.5177   -15.2993 Cl    197 CCL4  -0.0812 
1088 CL     -10.8625     0.2557   -17.2796 Cl    197 CCL4  -0.0812 
1089 CL      -8.5266     1.8558   -16.8622 Cl    197 CCL4  -0.0812 
1090 CL     -13.7402     4.7643    -9.0358 Cl    198 CCL4  -0.0812 
1091 C      -13.1950     3.0732    -9.3276 C.3   198 CCL4   0.3246 
1092 CL     -14.1550     1.9743    -8.3503 Cl    198 CCL4  -0.0812 
1093 CL     -11.5302     2.7981    -8.9271 Cl    198 CCL4  -0.0812 
1094 CL     -13.3864     2.6406   -11.0058 Cl    198 CCL4  -0.0812 
1095 CL     -13.1801    -5.4570   -18.0613 Cl    199 CCL4  -0.0812 
1096 C      -12.9194    -3.7445   -18.1564 C.3   199 CCL4   0.3246 
1097 CL     -14.0413    -2.8897   -19.1206 Cl    199 CCL4  -0.0812 
1098 CL     -11.1959    -3.5468   -18.9277 Cl    199 CCL4  -0.0812 
1099 CL     -12.6805    -3.0626   -16.4978 Cl    199 CCL4  -0.0812 
1100 CL       5.4082    -7.1568   -10.7821 Cl    200 CCL4  -0.0812 
1101 C        4.4460    -6.3659    -9.5205 C.3   200 CCL4   0.3246 
1102 CL       5.4775    -5.7504    -8.2183 Cl    200 CCL4  -0.0812 
1103 CL       3.2307    -7.3477    -8.7829 Cl    200 CCL4  -0.0812 
1104 CL       3.7363    -4.7651   -10.2777 Cl    200 CCL4  -0.0812 
1105 CL       6.1782    -1.6360   -12.1020 Cl    201 CCL4  -0.0812 
1106 C        5.3647    -1.0119   -13.4579 C.3   201 CCL4   0.3246 
1107 CL       3.7843    -1.8316   -13.5640 Cl    201 CCL4  -0.0812 
1108 CL       6.0932    -1.3296   -14.9588 Cl    201 CCL4  -0.0812 
1109 CL       5.1458     0.6876   -13.1613 Cl    201 CCL4  -0.0812 
1110 CL      -4.7184    -0.6104    -4.7981 Cl    202 CCL4  -0.0812 
1111 C       -6.3033    -0.6200    -3.9969 C.3   202 CCL4   0.3246 
1112 CL      -6.4402    -1.8295    -2.6803 Cl    202 CCL4  -0.0812 
1113 CL      -7.6497    -0.8564    -5.2357 Cl    202 CCL4  -0.0812 
1114 CL      -6.6617     1.0628    -3.4435 Cl    202 CCL4  -0.0812 
1115 CL      -7.3742    -2.8082    -8.7492 Cl    203 CCL4  -0.0812 
1116 C       -6.7165    -4.0215    -9.8742 C.3   203 CCL4   0.3246 
1117 CL      -7.8590    -4.4335   -11.1238 Cl    203 CCL4  -0.0812 
1118 CL      -6.2222    -5.4365    -9.0409 Cl    203 CCL4  -0.0812 
1119 CL      -5.3768    -3.3110   -10.7536 Cl    203 CCL4  -0.0812 
1120 CL      -2.8527    -0.9409   -10.2800 Cl    204 CCL4  -0.0812 
1121 C       -3.3479    -1.1441    -8.4756 C.3   204 CCL4   0.3246 
1122 CL      -5.0253    -0.4457    -8.1806 Cl    204 CCL4  -0.0812 
1123 CL      -2.1214    -0.1987    -7.4924 Cl    204 CCL4  -0.0812 
1124 CL      -3.2529    -2.8468    -7.9956 Cl    204 CCL4  -0.0812 
1125 CL     -11.8553    -5.9249    -3.6680 Cl    205 CCL4  -0.0812 
1126 C      -13.3793    -6.3345    -4.4473 C.3   205 CCL4   0.3246 
1127 CL     -14.7727    -5.5897    -3.7248 Cl    205 CCL4  -0.0812 
1128 CL     -13.5377    -8.1160    -4.4720 Cl    205 CCL4  -0.0812 
1129 CL     -13.2964    -5.8346    -6.1078 Cl    205 CCL4  -0.0812 
1130 CL     -11.9633    -0.7128    -7.2420 Cl    206 CCL4  -0.0812 
1131 C      -12.3218    -2.4972    -7.2266 C.3   206 CCL4   0.3246 
1132 CL     -13.4690    -3.0707    -8.4057 Cl    206 CCL4  -0.0812 
1133 CL     -13.0854    -2.7309    -5.5749 Cl    206 CCL4  -0.0812 
1134 CL     -10.8343    -3.5056    -7.2838 Cl    206 CCL4  -0.0812 
1135 CL       3.6935     1.2459    -5.3487 Cl    207 CCL4  -0.0812 
1136 C        4.6747     0.4216    -4.1574 C.3   207 CCL4   0.3246 
1137 CL       5.2590    -1.0835    -4.8880 Cl    207 CCL4  -0.0812 
1138 CL       3.7344     0.1212    -2.8067 Cl    207 CCL4  -0.0812 
1139 CL       6.1317     1.4642    -3.7907 Cl    207 CCL4  -0.0812 
1140 CL      -5.6362     4.9705    -7.6984 Cl    208 CCL4  -0.0812 
1141 C       -5.5188     3.2100    -7.8478 C.3   208 CCL4   0.3246 
1142 CL      -3.9095     2.6960    -7.4265 Cl    208 CCL4  -0.0812 
1143 CL      -5.5994     2.7573    -9.5800 Cl    208 CCL4  -0.0812 
1144 CL      -6.6781     2.4323    -6.7996 Cl    208 CCL4  -0.0812 
1145 CL     -15.4230     1.8054    -4.8213 Cl    209 CCL4  -0.0812 
1146 C      -14.8840     0.7326    -3.4171 C.3   209 CCL4   0.3246 
1147 CL     -15.7153    -0.8104    -3.5014 Cl    209 CCL4  -0.0812 
1148 CL     -15.3687     1.5438    -1.9414 Cl    209 CCL4  -0.0812 
1149 CL     -13.0677     0.5120    -3.6311 Cl    209 CCL4  -0.0812 
1150 CL     -10.0163    -3.0480    -3.6919 Cl    210 CCL4  -0.0812 
1151 C      -10.4652    -2.5583    -2.0443 C.3   210 CCL4   0.3246 
1152 CL      -9.7883    -3.9737    -1.1099 Cl    210 CCL4  -0.0812 
1153 CL     -12.2434    -2.4913    -1.8213 Cl    210 CCL4  -0.0812 
1154 CL      -9.7874    -0.9967    -1.5976 Cl    210 CCL4  -0.0812 
1155 CL      -5.7731    -6.1229    -3.1251 Cl    211 CCL4  -0.0812 
1156 C       -6.4069    -5.9903    -4.7840 C.3   211 CCL4   0.3246 
1157 CL      -5.3975    -6.8036    -5.9706 Cl    211 CCL4  -0.0812 
1158 CL      -6.6178    -4.1931    -5.2389 Cl    211 CCL4  -0.0812 
1159 CL      -7.9681    -6.7409    -4.8844 Cl    211 CCL4  -0.0812 
1160 CL       0.6850    -0.5960    -9.5236 Cl    212 CCL4  -0.0812 
1161 C        2.3189    -0.2058    -8.9397 C.3   212 CCL4   0.3246 
1162 CL       2.4353     1.5664    -8.6323 Cl    212 CCL4  -0.0812 
1163 CL       3.5415    -0.7169   -10.1565 Cl    212 CCL4  -0.0812 
1164 CL       2.6067    -0.9362    -7.3558 Cl    212 CCL4  -0.0812 
1165 CL     -16.9395    -3.6182    -6.4462 Cl    213 CCL4  -0.0812 
1166 C      -17.0304    -2.7556    -8.0034 C.3   213 CCL4   0.3246 
1167 CL     -16.2021    -1.1147    -8.0073 Cl    213 CCL4  -0.0812 
1168 CL     -18.7575    -2.2405    -8.1777 Cl    213 CCL4  -0.0812 
1169 CL     -16.4329    -3.7214    -9.4040 Cl    213 CCL4  -0.0812 
1170 CL     -15.8986    -7.0997    -7.6763 Cl    214 CCL4  -0.0812 
1171 C      -14.8148    -7.6978    -8.9453 C.3   214 CCL4   0.3246 
1172 CL     -15.7612    -9.0294    -9.6494 Cl    214 CCL4  -0.0812 
1173 CL     -13.4828    -8.5497    -8.1319 Cl    214 CCL4  -0.0812 
1174 CL     -14.3071    -6.4464   -10.1131 Cl    214 CCL4  -0.0812 
1175 CL      -2.5766    -3.6206    -3.5467 Cl    215 CCL4  -0.0812 
1176 C       -2.4654    -3.8035    -1.8080 C.3   215 CCL4   0.3246 
1177 CL      -0.7843    -3.1232    -1.3751 Cl    215 CCL4  -0.0812 
1178 CL      -2.5730    -5.5594    -1.4159 Cl    215 CCL4  -0.0812 
1179 CL      -3.6594    -2.8678    -0.9283 Cl    215 CCL4  -0.0812 
1180 CL      -0.3034    -5.5057   -18.1167 Cl    216 CCL4  -0.0812 
1181 C        0.2276    -4.1583   -17.1365 C.3   216 CCL4   0.3246 
1182 CL      -0.0194    -2.5913   -18.0343 Cl    216 CCL4  -0.0812 
1183 CL       1.9798    -4.3891   -16.8780 Cl    216 CCL4  -0.0812 
1184 CL      -0.7067    -4.1064   -15.5632 Cl    216 CCL4  -0.0812 
1185 CL      -2.1373   -11.3124   -15.2224 Cl    217 CCL4  -0.0812 
1186 C       -2.6873   -12.6844   -14.2646 C.3   217 CCL4   0.3246 
1187 CL      -3.6739   -12.1326   -12.8993 Cl    217 CCL4  -0.0812 
1188 CL      -1.2576   -13.4842   -13.6630 Cl    217 CCL4  -0.0812 
1189 CL      -3.7242   -13.7532   -15.3319 Cl    217 CCL4  -0.0812 
1190 CL       2.9555   -10.2451     0.0988 Cl    218 CCL4  -0.0812 
1191 C        3.7537   -11.5445     1.0148 C.3   218 CCL4   0.3246 
1192 CL       2.3779   -12.3803     1.7379 Cl    218 CCL4  -0.0812 
1193 CL       4.7731   -10.7628     2.1636 Cl    218 CCL4  -0.0812 
1194 CL       4.5790   -12.6095    -0.0324 Cl    218 CCL4  -0.0812 
1195 CL       2.7039    -9.2225    20.9753 Cl    219 CCL4  -0.0812 
1196 C        4.1757    -8.2645    20.8709 C.3   219 CCL4   0.3246 
1197 CL       5.6562    -9.2802    21.0056 Cl    219 CCL4  -0.0812 
1198 CL       4.2617    -6.9778    22.0547 Cl    219 CCL4  -0.0812 
1199 CL       4.2964    -7.4341    19.2706 Cl    219 CCL4  -0.0812 
1200 CL       1.7031   -14.5397   -15.2701 Cl    220 CCL4  -0.0812 
1201 C        2.4263   -12.9570   -15.2324 C.3   220 CCL4   0.3246 
1202 CL       2.7587   -12.5904   -13.4447 Cl    220 CCL4  -0.0812 
1203 CL       1.2887   -11.6918   -15.7570 Cl    220 CCL4  -0.0812 
1204 CL       3.9105   -12.7623   -16.1615 Cl    220 CCL4  -0.0812 
1205 CL       3.3293    -5.7561   -13.9583 Cl    221 CCL4  -0.0812 
1206 C        2.7911    -7.5170   -14.0431 C.3   221 CCL4   0.3246 
1207 CL       1.3384    -7.5154   -15.1119 Cl    221 CCL4  -0.0812 
1208 CL       2.4870    -8.1129   -12.4195 Cl    221 CCL4  -0.0812 
1209 CL       4.1503    -8.5056   -14.6462 Cl    221 CCL4  -0.0812 
1210 CL      -1.3379   -11.8727   -19.0483 Cl    222 CCL4  -0.0812 
1211 C       -0.4704   -13.3574   -18.9932 C.3   222 CCL4   0.3246 
1212 CL      -0.9894   -14.5955   -20.2058 Cl    222 CCL4  -0.0812 
1213 CL      -0.8254   -14.1632   -17.3090 Cl    222 CCL4  -0.0812 
1214 CL       1.3250   -13.2009   -19.0360 Cl    222 CCL4  -0.0812 
1215 CL      -0.9577     0.6929   -13.3759 Cl    223 CCL4  -0.0812 
1216 C        0.6821     1.1340   -13.8755 C.3   223 CCL4   0.3246 
1217 CL       1.6182     1.4972   -12.5002 Cl    223 CCL4  -0.0812 
1218 CL       0.6056     2.6588   -14.7692 Cl    223 CCL4  -0.0812 
1219 CL       1.2904    -0.2049   -14.8341 Cl    223 CCL4  -0.0812 
1220 CL      -3.5691     0.6620   -19.3665 Cl    224 CCL4  -0.0812 
1221 C       -1.8847     0.9136   -18.8975 C.3   224 CCL4   0.3246 
1222 CL      -1.5850     0.2932   -17.2797 Cl    224 CCL4  -0.0812 
1223 CL      -1.7555     2.7376   -18.8894 Cl    224 CCL4  -0.0812 
1224 CL      -0.8875     0.1016   -20.2249 Cl    224 CCL4  -0.0812 
1225 CL       1.0943   -11.7778    -9.8241 Cl    225 CCL4  -0.0812 
1226 C       -0.1641   -10.6871   -10.4708 C.3   225 CCL4   0.3246 
1227 CL      -1.8703   -11.3910    -9.9426 Cl    225 CCL4  -0.0812 
1228 CL      -0.1436   -10.6152   -12.2423 Cl    225 CCL4  -0.0812 
1229 CL      -0.2353    -9.0816    -9.6864 Cl    225 CCL4  -0.0812 
1230 CL      -2.8918    -7.5644   -11.4062 Cl    226 CCL4  -0.0812 
1231 C       -3.5696    -7.2148   -12.9695 C.3   226 CCL4   0.3246 
1232 CL      -4.3880    -8.7122   -13.4010 Cl    226 CCL4  -0.0812 
1233 CL      -2.4353    -6.8034   -14.3027 Cl    226 CCL4  -0.0812 
1234 CL      -4.8098    -5.9316   -12.9418 Cl    226 CCL4  -0.0812 
1235 CL      -0.5403    25.2650    -8.9317 Cl    227 CCL4  -0.0812 
1236 C        0.9387    24.5814    -9.6212 C.3   227 CCL4   0.3246 
1237 CL       1.1532    25.3441   -11.2602 Cl    227 CCL4  -0.0812 
1238 CL       0.8341    22.8298    -9.7324 Cl    227 CCL4  -0.0812 
1239 CL       2.3504    24.9691    -8.6363 Cl    227 CCL4  -0.0812 
1240 CL       0.9493    -5.8616    -0.1050 Cl    228 CCL4  -0.0812 
1241 C        2.5468    -6.2301    -0.7834 C.3   228 CCL4   0.3246 
1242 CL       3.1947    -4.7324    -1.6385 Cl    228 CCL4  -0.0812 
1243 CL       2.3591    -7.5507    -1.9143 Cl    228 CCL4  -0.0812 
1244 CL       3.6993    -6.7222     0.5660 Cl    228 CCL4  -0.0812 
1245 CL      -2.3217     5.5065   -10.1247 Cl    229 CCL4  -0.0812 
1246 C       -1.0514     4.2613   -10.2754 C.3   229 CCL4   0.3246 
1247 CL      -0.0696     4.2562    -8.7773 Cl    229 CCL4  -0.0812 
1248 CL      -0.1971     4.6468   -11.8528 Cl    229 CCL4  -0.0812 
1249 CL      -1.7678     2.6254   -10.3659 Cl    229 CCL4  -0.0812 
1250 CL      -2.4592     2.2226    -3.9612 Cl    230 CCL4  -0.0812 
1251 C       -0.7966     1.6257    -4.1281 C.3   230 CCL4   0.3246 
1252 CL      -0.2153     2.2832    -5.7108 Cl    230 CCL4  -0.0812 
1253 CL      -0.6703    -0.1032    -3.9697 Cl    230 CCL4  -0.0812 
1254 CL       0.1595     2.3881    -2.7710 Cl    230 CCL4  -0.0812 
1255 CL       1.2895   -12.8955    -1.6973 Cl    231 CCL4  -0.0812 
1256 C        0.2596   -12.1201    -2.9523 C.3   231 CCL4   0.3246 
1257 CL      -0.7907   -13.3508    -3.6521 Cl    231 CCL4  -0.0812 
1258 CL       1.2142   -11.3174    -4.2011 Cl    231 CCL4  -0.0812 
1259 CL      -0.7712   -10.9234    -1.9985 Cl    231 CCL4  -0.0812 
1260 CL       3.9864    26.6186    -3.5965 Cl    232 CCL4  -0.0812 
1261 C        3.9809    24.9715    -4.0196 C.3   232 CCL4   0.3246 
1262 CL       4.4451    24.0493    -2.5212 Cl    232 CCL4  -0.0812 
1263 CL       5.1349    24.5984    -5.2277 Cl    232 CCL4  -0.0812 
1264 CL       2.3805    24.4768    -4.4329 Cl    232 CCL4  -0.0812 
1265 CL       2.8319    -4.1533    -6.2448 Cl    233 CCL4  -0.0812 
1266 C        1.4850    -3.8111    -5.2131 C.3   233 CCL4   0.3246 
1267 CL       0.1543    -3.0998    -6.1396 Cl    233 CCL4  -0.0812 
1268 CL       1.9905    -2.3760    -4.2786 Cl    233 CCL4  -0.0812 
1269 CL       0.7952    -5.1511    -4.1804 Cl    233 CCL4  -0.0812 
1270 CL      -3.9133    -5.8782    20.1419 Cl    234 CCL4  -0.0812 
1271 C       -4.3385    -4.0803    19.7706 C.3   234 CCL4   0.3246 
1272 CL      -3.4288    -2.9637    20.7816 Cl    234 CCL4  -0.0812 
1273 CL      -6.0729    -3.8595    20.1893 Cl    234 CCL4  -0.0812 
1274 CL      -3.9423    -3.7254    18.1055 Cl    234 CCL4  -0.0812 
1275 CL       0.7087    -3.0694   -11.9099 Cl    235 CCL4  -0.0812 
1276 C       -0.3089    -4.3315   -11.1183 C.3   235 CCL4   0.3246 
1277 CL       0.0409    -4.4264    -9.3606 Cl    235 CCL4  -0.0812 
1278 CL       0.0067    -5.9318   -11.8019 Cl    235 CCL4  -0.0812 
1279 CL      -2.0729    -4.0292   -11.4553 Cl    235 CCL4  -0.0812 
1280 CL      -5.0214    -1.1209   -16.5277 Cl    236 CCL4  -0.0812 
1281 C       -4.5891    -2.3867   -15.3850 C.3   236 CCL4   0.3246 
1282 CL      -5.8909    -2.3586   -14.2427 Cl    236 CCL4  -0.0812 
1283 CL      -3.0176    -2.0242   -14.4885 Cl    236 CCL4  -0.0812 
1284 CL      -4.3299    -3.9035   -16.1601 Cl    236 CCL4  -0.0812 
1285 CL      -4.7200     2.2997   -15.3386 Cl    237 CCL4  -0.0812 
1286 C       -5.0949     2.5066   -13.6562 C.3   237 CCL4   0.3246 
1287 CL      -4.1514     3.9305   -13.1422 Cl    237 CCL4  -0.0812 
1288 CL      -4.5877     1.0724   -12.7808 Cl    237 CCL4  -0.0812 
1289 CL      -6.7751     2.8106   -13.2785 Cl    237 CCL4  -0.0812 
1290 CL     -17.1346    -6.8160     8.6838 Cl    238 CCL4  -0.0812 
1291 C      -17.3689    -5.1745     9.3480 C.3   238 CCL4   0.3246 
1292 CL     -18.8637    -4.5476     8.6398 Cl    238 CCL4  -0.0812 
1293 CL     -15.9459    -4.1180     9.1255 Cl    238 CCL4  -0.0812 
1294 CL     -17.5806    -5.3853    11.1114 Cl    238 CCL4  -0.0812 
1295 CL      -5.4777    -8.7702     5.5430 Cl    239 CCL4  -0.0812 
1296 C       -4.9764    -8.7703     7.1635 C.3   239 CCL4   0.3246 
1297 CL      -5.3128   -10.2660     7.9482 Cl    239 CCL4  -0.0812 
1298 CL      -5.5346    -7.4149     8.0496 Cl    239 CCL4  -0.0812 
1299 CL      -3.1843    -8.6438     7.1412 Cl    239 CCL4  -0.0812 
1300 CL      -7.5930    22.0603    11.3307 Cl    240 CCL4  -0.0812 
1301 C       -8.1908    23.0781     9.9355 C.3   240 CCL4   0.3246 
1302 CL      -9.4293    22.2994     8.8529 Cl    240 CCL4  -0.0812 
1303 CL      -6.8132    23.6389     8.9364 Cl    240 CCL4  -0.0812 
1304 CL      -8.9216    24.6169    10.6760 Cl    240 CCL4  -0.0812 
1305 CL     -13.3246    -6.4636    10.5775 Cl    241 CCL4  -0.0812 
1306 C      -13.0384    -8.2186    10.7047 C.3   241 CCL4   0.3246 
1307 CL     -13.2831    -8.7338    12.3955 Cl    241 CCL4  -0.0812 
1308 CL     -11.4992    -8.8180    10.1412 Cl    241 CCL4  -0.0812 
1309 CL     -14.2924    -9.0318     9.7368 Cl    241 CCL4  -0.0812 
1310 CL     -11.8752     2.4184    10.7599 Cl    242 CCL4  -0.0812 
1311 C      -11.3410     3.9798    10.0745 C.3   242 CCL4   0.3246 
1312 CL     -12.2692     5.3948    10.6082 Cl    242 CCL4  -0.0812 
1313 CL     -11.1944     3.9900     8.3270 Cl    242 CCL4  -0.0812 
1314 CL      -9.7076     4.2455    10.7316 Cl    242 CCL4  -0.0812 
1315 CL      -7.8788    -9.3813    10.4102 Cl    243 CCL4  -0.0812 
1316 C       -8.3873   -11.1086    10.6264 C.3   243 CCL4   0.3246 
1317 CL      -6.9603   -12.0520    11.0906 Cl    243 CCL4  -0.0812 
1318 CL      -9.0485   -11.7913     9.1740 Cl    243 CCL4  -0.0812 
1319 CL      -9.4830   -11.2240    12.0773 Cl    243 CCL4  -0.0812 
1320 CL     -12.4723    23.3754    10.3556 Cl    244 CCL4  -0.0812 
1321 C      -13.2162    23.8661    11.9068 C.3   244 CCL4   0.3246 
1322 CL     -11.9923    24.3547    12.9796 Cl    244 CCL4  -0.0812 
1323 CL     -14.0932    22.4525    12.5228 Cl    244 CCL4  -0.0812 
1324 CL     -14.4068    25.2087    11.6020 Cl    244 CCL4  -0.0812 
1325 CL       3.6715    -0.9624     7.8693 Cl    245 CCL4  -0.0812 
1326 C        3.6262     0.6578     7.1870 C.3   245 CCL4   0.3246 
1327 CL       3.8712     1.9322     8.5442 Cl    245 CCL4  -0.0812 
1328 CL       2.0107     1.0536     6.5319 Cl    245 CCL4  -0.0812 
1329 CL       4.7925     1.0834     5.9312 Cl    245 CCL4  -0.0812 
1330 CL      -3.4220   -11.1833     0.8693 Cl    246 CCL4  -0.0812 
1331 C       -2.4212   -12.5094     1.6230 C.3   246 CCL4   0.3246 
1332 CL      -2.0041   -13.5880     0.2793 Cl    246 CCL4  -0.0812 
1333 CL      -3.3574   -13.3061     2.8605 Cl    246 CCL4  -0.0812 
1334 CL      -0.9936   -11.7803     2.3664 Cl    246 CCL4  -0.0812 
1335 CL      -6.2479   -11.9082     4.6249 Cl    247 CCL4  -0.0812 
1336 C       -6.4954   -13.4789     5.3906 C.3   247 CCL4   0.3246 
1337 CL      -7.8742   -13.4427     6.4741 Cl    247 CCL4  -0.0812 
1338 CL      -5.0383   -13.9649     6.3358 Cl    247 CCL4  -0.0812 
1339 CL      -6.7181   -14.7590     4.1116 Cl    247 CCL4  -0.0812 
1340 CL     -13.0492   -13.6830     1.4437 Cl    248 CCL4  -0.0812 
1341 C      -12.5775   -14.2763     3.0541 C.3   248 CCL4   0.3246 
1342 CL     -13.7576   -13.6937     4.2132 Cl    248 CCL4  -0.0812 
1343 CL     -11.0405   -13.5330     3.5064 Cl    248 CCL4  -0.0812 
1344 CL     -12.3726   -16.0284     2.9797 Cl    248 CCL4  -0.0812 
1345 CL      -9.4506    -7.2937     4.6769 Cl    249 CCL4  -0.0812 
1346 C       -9.8367    -8.7488     5.7249 C.3   249 CCL4   0.3246 
1347 CL     -11.5402    -8.7235     6.3354 Cl    249 CCL4  -0.0812 
1348 CL      -8.7103    -8.8934     7.1235 Cl    249 CCL4  -0.0812 
1349 CL      -9.4534   -10.1523     4.6959 Cl    249 CCL4  -0.0812 
1350 CL     -16.6198   -10.7683     3.8638 Cl    250 CCL4  -0.0812 
1351 C      -15.3745    -9.8346     4.6997 C.3   250 CCL4   0.3246 
1352 CL     -15.5645   -10.2898     6.4970 Cl    250 CCL4  -0.0812 
1353 CL     -15.7485    -8.0402     4.8039 Cl    250 CCL4  -0.0812 
1354 CL     -13.8634   -10.3408     4.1099 Cl    250 CCL4  -0.0812 
1355 CL     -11.5995   -14.3628     7.5933 Cl    251 CCL4  -0.0812 
1356 C      -12.6136   -13.1235     8.3172 C.3   251 CCL4   0.3246 
1357 CL     -12.2843   -11.5984     7.4736 Cl    251 CCL4  -0.0812 
1358 CL     -11.9927   -12.8795    10.0353 Cl    251 CCL4  -0.0812 
1359 CL     -14.2891   -13.6500     8.2899 Cl    251 CCL4  -0.0812 
1360 CL       7.6283    -8.9347    11.5071 Cl    252 CCL4  -0.0812 
1361 C        7.2990   -10.5623    10.8504 C.3   252 CCL4   0.3246 
1362 CL       6.0481   -11.4012    11.7368 Cl    252 CCL4  -0.0812 
1363 CL       8.6914   -11.5651    11.0842 Cl    252 CCL4  -0.0812 
1364 CL       6.8862   -10.3135     9.0997 Cl    252 CCL4  -0.0812 
1365 CL       7.9132    23.0450    11.3059 Cl    253 CCL4  -0.0812 
1366 C        6.4477    23.9208    10.7812 C.3   253 CCL4   0.3246 
1367 CL       7.0127    25.1646     9.6284 Cl    253 CCL4  -0.0812 
1368 CL       5.5555    24.6697    12.0799 Cl    253 CCL4  -0.0812 
1369 CL       5.3462    22.8346     9.7959 Cl    253 CCL4  -0.0812 
1370 CL     -15.4870     4.7428     9.9621 Cl    254 CCL4  -0.0812 
1371 C      -16.8440     3.9799    10.8515 C.3   254 CCL4   0.3246 
1372 CL     -18.3629     4.5625    10.0892 Cl    254 CCL4  -0.0812 
1373 CL     -16.8349     4.5713    12.5021 Cl    254 CCL4  -0.0812 
1374 CL     -16.5757     2.2426    10.7564 Cl    254 CCL4  -0.0812 
1375 CL       5.4404   -15.3099     6.1959 Cl    255 CCL4  -0.0812 
1376 C        5.9845   -13.8007     5.4680 C.3   255 CCL4   0.3246 
1377 CL       7.2554   -13.0200     6.5116 Cl    255 CCL4  -0.0812 
1378 CL       4.6724   -12.5582     5.3729 Cl    255 CCL4  -0.0812 
1379 CL       6.6526   -13.9116     3.9006 Cl    255 CCL4  -0.0812 
1380 CL     -12.9873    25.1087    18.9777 Cl    256 CCL4  -0.0812 
1381 C      -12.5150    23.6428    17.9879 C.3   256 CCL4   0.3246 
1382 CL     -14.0591    23.1261    17.2351 Cl    256 CCL4  -0.0812 
1383 CL     -11.7375    22.3226    18.9669 Cl    256 CCL4  -0.0812 
1384 CL     -11.4357    24.2278    16.7307 Cl    256 CCL4  -0.0812 
1385 CL       8.1539    24.5593    17.3119 Cl    257 CCL4  -0.0812 
1386 C        7.1912    23.1806    16.5919 C.3   257 CCL4   0.3246 
1387 CL       8.0342    22.5370    15.1380 Cl    257 CCL4  -0.0812 
1388 CL       5.6232    23.8122    16.1130 Cl    257 CCL4  -0.0812 
1389 CL       6.8699    21.7973    17.7536 Cl    257 CCL4  -0.0812 
1390 CL      -7.2280   -11.3295    15.1372 Cl    258 CCL4  -0.0812 
1391 C       -6.3271   -10.2568    16.2110 C.3   258 CCL4   0.3246 
1392 CL      -5.1672    -9.1694    15.4025 Cl    258 CCL4  -0.0812 
1393 CL      -5.3551   -11.3415    17.4589 Cl    258 CCL4  -0.0812 
1394 CL      -7.4331    -9.2913    17.1906 Cl    258 CCL4  -0.0812 
1395 CL      -8.3053    -8.0099    13.9556 Cl    259 CCL4  -0.0812 
1396 C       -9.8793    -7.7323    14.8251 C.3   259 CCL4   0.3246 
1397 CL      -9.6060    -6.7842    16.2575 Cl    259 CCL4  -0.0812 
1398 CL     -10.5806    -9.3495    15.2706 Cl    259 CCL4  -0.0812 
1399 CL     -10.9091    -6.8502    13.7734 Cl    259 CCL4  -0.0812 
1400 CL      -3.2966    24.1441    13.5186 Cl    260 CCL4  -0.0812 
1401 C       -4.8350    24.5685    14.1072 C.3   260 CCL4   0.3246 
1402 CL      -5.9169    24.8873    12.6646 Cl    260 CCL4  -0.0812 
1403 CL      -4.7453    26.0184    15.0448 Cl    260 CCL4  -0.0812 
1404 CL      -5.5698    23.2855    15.0345 Cl    260 CCL4  -0.0812 
1405 CL     -13.9098   -11.8615    13.9773 Cl    261 CCL4  -0.0812 
1406 C      -15.0050   -12.8238    14.9123 C.3   261 CCL4   0.3246 
1407 CL     -16.6914   -12.5312    14.4468 Cl    261 CCL4  -0.0812 
1408 CL     -14.9284   -12.2629    16.5470 Cl    261 CCL4  -0.0812 
1409 CL     -14.5874   -14.5366    14.8020 Cl    261 CCL4  -0.0812 
1410 CL       6.6740     1.3877    17.0651 Cl    262 CCL4  -0.0812 
1411 C        7.1199     2.2343    15.5749 C.3   262 CCL4   0.3246 
1412 CL       7.7965     3.8276    16.0676 Cl    262 CCL4  -0.0812 
1413 CL       5.5247     2.4912    14.8251 Cl    262 CCL4  -0.0812 
1414 CL       8.1916     1.3899    14.4158 Cl    262 CCL4  -0.0812 
1415 CL      -8.2626    -3.6476     8.3894 Cl    263 CCL4  -0.0812 
1416 C       -8.9529    -4.7778     9.5858 C.3   263 CCL4   0.3246 
1417 CL     -10.0890    -5.8731     8.5870 Cl    263 CCL4  -0.0812 
1418 CL      -9.9057    -3.7290    10.7368 Cl    263 CCL4  -0.0812 
1419 CL      -7.7841    -5.8468    10.3502 Cl    263 CCL4  -0.0812 
1420 CL      -8.9589     0.3547    15.7710 Cl    264 CCL4  -0.0812 
1421 C       -9.3470     0.0391    14.0141 C.3   264 CCL4   0.3246 
1422 CL     -10.5460    -1.3823    13.9974 Cl    264 CCL4  -0.0812 
1423 CL      -7.8038    -0.5481    13.2512 Cl    264 CCL4  -0.0812 
1424 CL      -9.9910     1.4204    13.2644 Cl    264 CCL4  -0.0812 
1425 CL     -12.8726    -0.9021    11.1869 Cl    265 CCL4  -0.0812 
1426 C      -13.9972    -1.6932    12.2833 C.3   265 CCL4   0.3246 
1427 CL     -13.5982    -3.3745    12.5395 Cl    265 CCL4  -0.0812 
1428 CL     -15.6415    -1.5708    11.5368 Cl    265 CCL4  -0.0812 
1429 CL     -14.0061    -0.9333    13.9076 Cl    265 CCL4  -0.0812 
1430 CL       1.7863    -4.3653     4.3576 Cl    266 CCL4  -0.0812 
1431 C        1.7231    -2.9441     3.2839 C.3   266 CCL4   0.3246 
1432 CL       2.7160    -3.1186     1.8428 Cl    266 CCL4  -0.0812 
1433 CL       2.4112    -1.6089     4.3499 Cl    266 CCL4  -0.0812 
1434 CL       0.1047    -2.6080     2.8345 Cl    266 CCL4  -0.0812 
1435 CL       5.2779    -0.7610     2.9927 Cl    267 CCL4  -0.0812 
1436 C        5.8897     0.5116     1.9322 C.3   267 CCL4   0.3246 
1437 CL       7.3932    -0.0245     1.1531 Cl    267 CCL4  -0.0812 
1438 CL       6.3076     2.0407     2.7710 Cl    267 CCL4  -0.0812 
1439 CL       4.6768     0.7822     0.6516 Cl    267 CCL4  -0.0812 
1440 CL     -12.9777    -7.4146     2.6953 Cl    268 CCL4  -0.0812 
1441 C      -12.4655    -5.9627     1.9336 C.3   268 CCL4   0.3246 
1442 CL     -12.6658    -4.6192     3.0152 Cl    268 CCL4  -0.0812 
1443 CL     -13.3109    -5.5528     0.4594 Cl    268 CCL4  -0.0812 
1444 CL     -10.6790    -5.9977     1.6181 Cl    268 CCL4  -0.0812 
1445 CL     -15.5767     1.0858     5.1860 Cl    269 CCL4  -0.0812 
1446 C      -15.9792     0.9583     6.9949 C.3   269 CCL4   0.3246 
1447 CL     -16.7894    -0.6554     7.1814 Cl    269 CCL4  -0.0812 
1448 CL     -17.3032     2.1180     7.3333 Cl    269 CCL4  -0.0812 
1449 CL     -14.5407     0.9713     7.9518 Cl    269 CCL4  -0.0812 
1450 CL     -13.1801    -5.4570     6.9387 Cl    270 CCL4  -0.0812 
1451 C      -12.9194    -3.7445     6.8436 C.3   270 CCL4   0.3246 
1452 CL     -14.0413    -2.8897     5.8794 Cl    270 CCL4  -0.0812 
1453 CL     -11.1959    -3.5468     6.0723 Cl    270 CCL4  -0.0812 
1454 CL     -12.6805    -3.0626     8.5022 Cl    270 CCL4  -0.0812 
1455 CL     -17.0421    -4.7249     5.3705 Cl    271 CCL4  -0.0812 
1456 C      -17.3734    -3.9564     3.7973 C.3   271 CCL4   0.3246 
1457 CL     -19.0125    -4.1572     3.2651 Cl    271 CCL4  -0.0812 
1458 CL     -16.3722    -4.6206     2.5441 Cl    271 CCL4  -0.0812 
1459 CL     -17.1483    -2.2292     3.9491 Cl    271 CCL4  -0.0812 
1460 CL       5.4082    -7.1568    14.2179 Cl    272 CCL4  -0.0812 
1461 C        4.4460    -6.3659    15.4795 C.3   272 CCL4   0.3246 
1462 CL       5.4775    -5.7504    16.7817 Cl    272 CCL4  -0.0812 
1463 CL       3.2307    -7.3477    16.2171 Cl    272 CCL4  -0.0812 
1464 CL       3.7363    -4.7651    14.7223 Cl    272 CCL4  -0.0812 
1465 CL       6.1782    -1.6360    12.8980 Cl    273 CCL4  -0.0812 
1466 C        5.3647    -1.0119    11.5421 C.3   273 CCL4   0.3246 
1467 CL       3.7843    -1.8316    11.4360 Cl    273 CCL4  -0.0812 
1468 CL       6.0932    -1.3296    10.0412 Cl    273 CCL4  -0.0812 
1469 CL       5.1458     0.6876    11.8387 Cl    273 CCL4  -0.0812 
1470 CL      -4.4681    -7.4871     2.0031 Cl    274 CCL4  -0.0812 
1471 C       -6.1698    -7.4289     1.7177 C.3   274 CCL4   0.3246 
1472 CL      -6.8757    -8.8922     2.1766 Cl    274 CCL4  -0.0812 
1473 CL      -6.5055    -6.9785    -0.0222 Cl    274 CCL4  -0.0812 
1474 CL      -6.8245    -6.0606     2.7346 Cl    274 CCL4  -0.0812 
1475 CL      -7.3742    -2.8082    16.2508 Cl    275 CCL4  -0.0812 
1476 C       -6.7165    -4.0215    15.1258 C.3   275 CCL4   0.3246 
1477 CL      -7.8590    -4.4335    13.8762 Cl    275 CCL4  -0.0812 
1478 CL      -6.2222    -5.4365    15.9591 Cl    275 CCL4  -0.0812 
1479 CL      -5.3768    -3.3110    14.2464 Cl    275 CCL4  -0.0812 
1480 CL      -5.6362     4.9705    17.3016 Cl    276 CCL4  -0.0812 
1481 C       -5.5188     3.2100    17.1522 C.3   276 CCL4   0.3246 
1482 CL      -3.9095     2.6960    17.5735 Cl    276 CCL4  -0.0812 
1483 CL      -5.5994     2.7573    15.4200 Cl    276 CCL4  -0.0812 
1484 CL      -6.6781     2.4323    18.2004 Cl    276 CCL4  -0.0812 
1485 CL       0.6850    -0.5960    15.4764 Cl    277 CCL4  -0.0812 
1486 C        2.3189    -0.2058    16.0603 C.3   277 CCL4   0.3246 
1487 CL       2.4353     1.5664    16.3677 Cl    277 CCL4  -0.0812 
1488 CL       3.5415    -0.7169    14.8435 Cl    277 CCL4  -0.0812 
1489 CL       2.6067    -0.9362    17.6442 Cl    277 CCL4  -0.0812 
1490 CL     -16.9395    -3.6182    18.5538 Cl    278 CCL4  -0.0812 
1491 C      -17.0304    -2.7556    16.9966 C.3   278 CCL4   0.3246 
1492 CL     -16.2021    -1.1147    16.9927 Cl    278 CCL4  -0.0812 
1493 CL     -18.7575    -2.2405    16.8223 Cl    278 CCL4  -0.0812 
1494 CL     -16.4329    -3.7214    15.5960 Cl    278 CCL4  -0.0812 
1495 CL     -15.8986    -7.0997    17.3237 Cl    279 CCL4  -0.0812 
1496 C      -14.8148    -7.6978    16.0547 C.3   279 CCL4   0.3246 
1497 CL     -15.7612    -9.0294    15.3506 Cl    279 CCL4  -0.0812 
1498 CL     -13.4828    -8.5497    16.8681 Cl    279 CCL4  -0.0812 
1499 CL     -14.3071    -6.4464    14.8869 Cl    279 CCL4  -0.0812 
1500 CL      -0.3034    -5.5057     6.8833 Cl    280 CCL4  -0.0812 
1501 C        0.2276    -4.1583     7.8635 C.3   280 CCL4   0.3246 
1502 CL      -0.0194    -2.5913     6.9657 Cl    280 CCL4  -0.0812 
1503 CL       1.9798    -4.3891     8.1220 Cl    280 CCL4  -0.0812 
1504 CL      -0.7067    -4.1064     9.4368 Cl    280 CCL4  -0.0812 
1505 CL      -2.1373   -11.3124     9.7776 Cl    281 CCL4  -0.0812 
1506 C       -2.6873   -12.6844    10.7354 C.3   281 CCL4   0.3246 
1507 CL      -3.6739   -12.1326    12.1007 Cl    281 CCL4  -0.0812 
1508 CL      -1.2576   -13.4842    11.3370 Cl    281 CCL4  -0.0812 
1509 CL      -3.7242   -13.7532     9.6681 Cl    281 CCL4  -0.0812 
1510 CL       2.7039    -9.2225     5.9753 Cl    282 CCL4  -0.0812 
1511 C        4.1757    -8.2645     5.8709 C.3   282 CCL4   0.3246 
1512 CL       5.6562    -9.2802     6.0056 Cl    282 CCL4  -0.0812 
1513 CL       4.2617    -6.9778     7.0547 Cl    282 CCL4  -0.0812 
1514 CL       4.2964    -7.4341     4.2706 Cl    282 CCL4  -0.0812 
1515 CL       1.7031   -14.5397     9.7299 Cl    283 CCL4  -0.0812 
1516 C        2.4263   -12.9570     9.7676 C.3   283 CCL4   0.3246 
1517 CL       2.7587   -12.5904    11.5553 Cl    283 CCL4  -0.0812 
1518 CL       1.2887   -11.6918     9.2430 Cl    283 CCL4  -0.0812 
1519 CL       3.9105   -12.7623     8.8385 Cl    283 CCL4  -0.0812 
1520 CL       3.3293    -5.7561    11.0417 Cl    284 CCL4  -0.0812 
1521 C        2.7911    -7.5170    10.9569 C.3   284 CCL4   0.3246 
1522 CL       1.3384    -7.5154     9.8881 Cl    284 CCL4  -0.0812 
1523 CL       2.4870    -8.1129    12.5805 Cl    284 CCL4  -0.0812 
1524 CL       4.1503    -8.5056    10.3538 Cl    284 CCL4  -0.0812 
1525 CL       3.3768    24.5612     2.9596 Cl    285 CCL4  -0.0812 
1526 C        2.1656    23.4888     2.0417 C.3   285 CCL4   0.3246 
1527 CL       1.9246    21.9841     2.9794 Cl    285 CCL4  -0.0812 
1528 CL       2.8859    23.1018     0.4283 Cl    285 CCL4  -0.0812 
1529 CL       0.6095    24.3334     2.0192 Cl    285 CCL4  -0.0812 
1530 CL      -1.3379   -11.8727     5.9517 Cl    286 CCL4  -0.0812 
1531 C       -0.4704   -13.3574     6.0068 C.3   286 CCL4   0.3246 
1532 CL      -0.9894   -14.5955     4.7942 Cl    286 CCL4  -0.0812 
1533 CL      -0.8254   -14.1632     7.6910 Cl    286 CCL4  -0.0812 
1534 CL       1.3250   -13.2009     5.9640 Cl    286 CCL4  -0.0812 
1535 CL      -0.9577     0.6929    11.6241 Cl    287 CCL4  -0.0812 
1536 C        0.6821     1.1340    11.1245 C.3   287 CCL4   0.3246 
1537 CL       1.6182     1.4972    12.4998 Cl    287 CCL4  -0.0812 
1538 CL       0.6056     2.6588    10.2308 Cl    287 CCL4  -0.0812 
1539 CL       1.2904    -0.2049    10.1659 Cl    287 CCL4  -0.0812 
1540 CL       1.0002    -8.0515     3.0086 Cl    288 CCL4  -0.0812 
1541 C       -0.6847    -7.7449     2.5650 C.3   288 CCL4   0.3246 
1542 CL      -1.7126    -8.5588     3.7542 Cl    288 CCL4  -0.0812 
1543 CL      -1.1007    -8.3426     0.9226 Cl    288 CCL4  -0.0812 
1544 CL      -1.2175    -6.0523     2.6638 Cl    288 CCL4  -0.0812 
1545 CL      -3.5691     0.6620     5.6335 Cl    289 CCL4  -0.0812 
1546 C       -1.8847     0.9136     6.1025 C.3   289 CCL4   0.3246 
1547 CL      -1.5850     0.2932     7.7203 Cl    289 CCL4  -0.0812 
1548 CL      -1.7555     2.7376     6.1106 Cl    289 CCL4  -0.0812 
1549 CL      -0.8875     0.1016     4.7751 Cl    289 CCL4  -0.0812 
1550 CL       1.0943   -11.7778    15.1759 Cl    290 CCL4  -0.0812 
1551 C       -0.1641   -10.6871    14.5292 C.3   290 CCL4   0.3246 
1552 CL      -1.8703   -11.3910    15.0574 Cl    290 CCL4  -0.0812 
1553 CL      -0.1436   -10.6152    12.7577 Cl    290 CCL4  -0.0812 
1554 CL      -0.2353    -9.0816    15.3136 Cl    290 CCL4  -0.0812 
1555 CL      -2.8918    -7.5644    13.5938 Cl    291 CCL4  -0.0812 
1556 C       -3.5696    -7.2148    12.0305 C.3   291 CCL4   0.3246 
1557 CL      -4.3880    -8.7122    11.5990 Cl    291 CCL4  -0.0812 
1558 CL      -2.4353    -6.8034    10.6973 Cl    291 CCL4  -0.0812 
1559 CL      -4.8098    -5.9316    12.0582 Cl    291 CCL4  -0.0812 
1560 CL      -0.5403    25.2650    16.0683 Cl    292 CCL4  -0.0812 
1561 C        0.9387    24.5814    15.3788 C.3   292 CCL4   0.3246 
1562 CL       1.1532    25.3441    13.7398 Cl    292 CCL4  -0.0812 
1563 CL       0.8341    22.8298    15.2676 Cl    292 CCL4  -0.0812 
1564 CL       2.3504    24.9691    16.3637 Cl    292 CCL4  -0.0812 
1565 CL      -2.3217     5.5065    14.8753 Cl    293 CCL4  -0.0812 
1566 C       -1.0514     4.2613    14.7246 C.3   293 CCL4   0.3246 
1567 CL      -0.0696     4.2562    16.2227 Cl    293 CCL4  -0.0812 
1568 CL      -0.1971     4.6468    13.1472 Cl    293 CCL4  -0.0812 
1569 CL      -1.7678     2.6254    14.6341 Cl    293 CCL4  -0.0812 
1570 CL      -3.9133    -5.8782     5.1419 Cl    294 CCL4  -0.0812 
1571 C       -4.3385    -4.0803     4.7706 C.3   294 CCL4   0.3246 
1572 CL      -3.4288    -2.9637     5.7816 Cl    294 CCL4  -0.0812 
1573 CL      -6.0729    -3.8595     5.1893 Cl    294 CCL4  -0.0812 
1574 CL      -3.9423    -3.7254     3.1055 Cl    294 CCL4  -0.0812 
1575 CL       0.7087    -3.0694    13.0901 Cl    295 CCL4  -0.0812 
1576 C       -0.3089    -4.3315    13.8817 C.3   295 CCL4   0.3246 
1577 CL       0.0409    -4.4264    15.6394 Cl    295 CCL4  -0.0812 
1578 CL       0.0067    -5.9318    13.1981 Cl    295 CCL4  -0.0812 
1579 CL      -2.0729    -4.0292    13.5447 Cl    295 CCL4  -0.0812 
1580 CL      -5.0214    -1.1209     8.4723 Cl    296 CCL4  -0.0812 
1581 C       -4.5891    -2.3867     9.6150 C.3   296 CCL4   0.3246 
1582 CL      -5.8909    -2.3586    10.7573 Cl    296 CCL4  -0.0812 
1583 CL      -3.0176    -2.0242    10.5115 Cl    296 CCL4  -0.0812 
1584 CL      -4.3299    -3.9035     8.8399 Cl    296 CCL4  -0.0812 
1585 CL      -4.7200     2.2997     9.6614 Cl    297 CCL4  -0.0812 
1586 C       -5.0949     2.5066    11.3438 C.3   297 CCL4   0.3246 
1587 CL      -4.1514     3.9305    11.8578 Cl    297 CCL4  -0.0812 
1588 CL      -4.5877     1.0724    12.2192 Cl    297 CCL4  -0.0812 
1589 CL      -6.7751     2.8106    11.7215 Cl    297 CCL4  -0.0812 
1590 CL     -17.1346    18.1840   -16.3162 Cl    298 CCL4  -0.0812 
1591 C      -17.3689    19.8255   -15.6520 C.3   298 CCL4   0.3246 
1592 CL     -18.8637    20.4524   -16.3602 Cl    298 CCL4  -0.0812 
1593 CL     -15.9459    20.8820   -15.8745 Cl    298 CCL4  -0.0812 
1594 CL     -17.5806    19.6147   -13.8886 Cl    298 CCL4  -0.0812 
1595 CL      -5.4777    16.2298   -19.4570 Cl    299 CCL4  -0.0812 
1596 C       -4.9764    16.2297   -17.8365 C.3   299 CCL4   0.3246 
1597 CL      -5.3128    14.7340   -17.0518 Cl    299 CCL4  -0.0812 
1598 CL      -5.5346    17.5851   -16.9504 Cl    299 CCL4  -0.0812 
1599 CL      -3.1843    16.3562   -17.8588 Cl    299 CCL4  -0.0812 
1600 CL      -7.5930     7.0603   -13.6693 Cl    300 CCL4  -0.0812 
1601 C       -8.1908     8.0781   -15.0645 C.3   300 CCL4   0.3246 
1602 CL      -9.4293     7.2994   -16.1471 Cl    300 CCL4  -0.0812 
1603 CL      -6.8132     8.6389   -16.0636 Cl    300 CCL4  -0.0812 
1604 CL      -8.9216     9.6169   -14.3240 Cl    300 CCL4  -0.0812 
1605 CL     -13.3246    18.5364   -14.4225 Cl    301 CCL4  -0.0812 
1606 C      -13.0384    16.7814   -14.2953 C.3   301 CCL4   0.3246 
1607 CL     -13.2831    16.2662   -12.6045 Cl    301 CCL4  -0.0812 
1608 CL     -11.4992    16.1820   -14.8588 Cl    301 CCL4  -0.0812 
1609 CL     -14.2924    15.9682   -15.2632 Cl    301 CCL4  -0.0812 
1610 CL      -6.2199    10.6885     0.5910 Cl    302 CCL4  -0.0812 
1611 C       -7.8917    11.2857     0.4641 C.3   302 CCL4   0.3246 
1612 CL      -8.2476    11.5377    -1.3295 Cl    302 CCL4  -0.0812 
1613 CL      -8.2212    12.8093     1.3038 Cl    302 CCL4  -0.0812 
1614 CL      -9.1255    10.0627     0.8890 Cl    302 CCL4  -0.0812 
1615 CL      -7.8788    15.6187   -14.5898 Cl    303 CCL4  -0.0812 
1616 C       -8.3873    13.8914   -14.3736 C.3   303 CCL4   0.3246 
1617 CL      -6.9603    12.9480   -13.9094 Cl    303 CCL4  -0.0812 
1618 CL      -9.0485    13.2087   -15.8260 Cl    303 CCL4  -0.0812 
1619 CL      -9.4830    13.7760   -12.9227 Cl    303 CCL4  -0.0812 
1620 CL     -12.9845     7.7411   -18.4863 Cl    304 CCL4  -0.0812 
1621 C      -14.7659     7.2151   -18.3371 C.3   304 CCL4   0.3246 
1622 CL     -14.7812     5.5220   -18.1308 Cl    304 CCL4  -0.0812 
1623 CL     -15.7352     7.6469   -19.8248 Cl    304 CCL4  -0.0812 
1624 CL     -15.4273     8.1450   -16.9142 Cl    304 CCL4  -0.0812 
1625 CL      -8.7952     7.6521   -10.5826 Cl    305 CCL4  -0.0812 
1626 C       -9.2961     6.0162   -10.2272 C.3   305 CCL4   0.3246 
1627 CL      -8.0635     4.8857   -10.7703 Cl    305 CCL4  -0.0812 
1628 CL     -10.7335     5.6070   -11.1814 Cl    305 CCL4  -0.0812 
1629 CL      -9.6256     5.8534    -8.5407 Cl    305 CCL4  -0.0812 
1630 CL     -12.4723     8.3754   -14.6444 Cl    306 CCL4  -0.0812 
1631 C      -13.2162     8.8661   -13.0932 C.3   306 CCL4   0.3246 
1632 CL     -11.9923     9.3547   -12.0204 Cl    306 CCL4  -0.0812 
1633 CL     -14.0932     7.4525   -12.4772 Cl    306 CCL4  -0.0812 
1634 CL     -14.4068    10.2087   -13.3980 Cl    306 CCL4  -0.0812 
1635 CL       6.1405     6.2821    21.7438 Cl    307 CCL4  -0.0812 
1636 C        5.9719     5.5544    20.1298 C.3   307 CCL4   0.3246 
1637 CL       4.6091     4.3900    20.0335 Cl    307 CCL4  -0.0812 
1638 CL       7.5652     4.9220    19.7019 Cl    307 CCL4  -0.0812 
1639 CL       5.6266     6.9412    19.0249 Cl    307 CCL4  -0.0812 
1640 CL     -10.4245    15.8001     0.9918 Cl    308 CCL4  -0.0812 
1641 C      -10.7305    15.9502    -0.7134 C.3   308 CCL4   0.3246 
1642 CL      -9.6601    17.1185    -1.4964 Cl    308 CCL4  -0.0812 
1643 CL     -12.4009    16.4232    -1.0613 Cl    308 CCL4  -0.0812 
1644 CL     -10.5658    14.3280    -1.5295 Cl    308 CCL4  -0.0812 
1645 CL     -17.5259    17.3904     1.3805 Cl    309 CCL4  -0.0812 
1646 C      -16.8236    16.3926     0.0246 C.3   309 CCL4   0.3246 
1647 CL     -15.4399    15.5566     0.6989 Cl    309 CCL4  -0.0812 
1648 CL     -16.2688    17.5697    -1.1456 Cl    309 CCL4  -0.0812 
1649 CL     -17.9400    15.2247    -0.5867 Cl    309 CCL4  -0.0812 
1650 CL      -6.2479    13.0918    19.6249 Cl    310 CCL4  -0.0812 
1651 C       -6.4954    11.5211    20.3906 C.3   310 CCL4   0.3246 
1652 CL      -7.8742    11.5573    21.4741 Cl    310 CCL4  -0.0812 
1653 CL      -5.0383    11.0351    21.3358 Cl    310 CCL4  -0.0812 
1654 CL      -6.7181    10.2410    19.1116 Cl    310 CCL4  -0.0812 
1655 CL      -9.4506    17.7063    19.6769 Cl    311 CCL4  -0.0812 
1656 C       -9.8367    16.2512    20.7249 C.3   311 CCL4   0.3246 
1657 CL     -11.5402    16.2765    21.3354 Cl    311 CCL4  -0.0812 
1658 CL      -8.7103    16.1066    22.1235 Cl    311 CCL4  -0.0812 
1659 CL      -9.4534    14.8477    19.6959 Cl    311 CCL4  -0.0812 
1660 CL     -11.5995    10.6372   -17.4067 Cl    312 CCL4  -0.0812 
1661 C      -12.6136    11.8765   -16.6828 C.3   312 CCL4   0.3246 
1662 CL     -12.2843    13.4016   -17.5264 Cl    312 CCL4  -0.0812 
1663 CL     -11.9927    12.1205   -14.9647 Cl    312 CCL4  -0.0812 
1664 CL     -14.2891    11.3500   -16.7101 Cl    312 CCL4  -0.0812 
1665 CL       7.6283    16.0653   -13.4929 Cl    313 CCL4  -0.0812 
1666 C        7.2990    14.4377   -14.1496 C.3   313 CCL4   0.3246 
1667 CL       6.0481    13.5988   -13.2632 Cl    313 CCL4  -0.0812 
1668 CL       8.6914    13.4349   -13.9158 Cl    313 CCL4  -0.0812 
1669 CL       6.8862    14.6865   -15.9003 Cl    313 CCL4  -0.0812 
1670 CL       7.9132     8.0450   -13.6941 Cl    314 CCL4  -0.0812 
1671 C        6.4477     8.9208   -14.2188 C.3   314 CCL4   0.3246 
1672 CL       7.0127    10.1646   -15.3716 Cl    314 CCL4  -0.0812 
1673 CL       5.5555     9.6697   -12.9201 Cl    314 CCL4  -0.0812 
1674 CL       5.3462     7.8346   -15.2041 Cl    314 CCL4  -0.0812 
1675 CL       5.8384    15.2615    -8.6972 Cl    315 CCL4  -0.0812 
1676 C        5.0818    13.6936    -8.2172 C.3   315 CCL4   0.3246 
1677 CL       4.9737    12.6401    -9.6726 Cl    315 CCL4  -0.0812 
1678 CL       3.4018    14.0360    -7.5829 Cl    315 CCL4  -0.0812 
1679 CL       6.0281    12.7891    -6.9194 Cl    315 CCL4  -0.0812 
1680 CL       5.4404     9.6901    21.1959 Cl    316 CCL4  -0.0812 
1681 C        5.9845    11.1993    20.4680 C.3   316 CCL4   0.3246 
1682 CL       7.2554    11.9800    21.5116 Cl    316 CCL4  -0.0812 
1683 CL       4.6724    12.4418    20.3729 Cl    316 CCL4  -0.0812 
1684 CL       6.6526    11.0884    18.9006 Cl    316 CCL4  -0.0812 
1685 CL     -12.9873    10.1087    -6.0223 Cl    317 CCL4  -0.0812 
1686 C      -12.5150     8.6428    -7.0121 C.3   317 CCL4   0.3246 
1687 CL     -14.0591     8.1261    -7.7649 Cl    317 CCL4  -0.0812 
1688 CL     -11.7375     7.3226    -6.0331 Cl    317 CCL4  -0.0812 
1689 CL     -11.4357     9.2278    -8.2693 Cl    317 CCL4  -0.0812 
1690 CL      -6.0252    15.4088    -3.9361 Cl    318 CCL4  -0.0812 
1691 C       -5.2812    14.7102    -2.5824 C.3   318 CCL4   0.3246 
1692 CL      -6.3044    14.7435    -1.1327 Cl    318 CCL4  -0.0812 
1693 CL      -3.9062    15.7302    -2.0760 Cl    318 CCL4  -0.0812 
1694 CL      -4.7319    13.0808    -2.9137 Cl    318 CCL4  -0.0812 
1695 CL       8.1539     9.5593    -7.6881 Cl    319 CCL4  -0.0812 
1696 C        7.1912     8.1806    -8.4081 C.3   319 CCL4   0.3246 
1697 CL       8.0342     7.5370    -9.8620 Cl    319 CCL4  -0.0812 
1698 CL       5.6232     8.8122    -8.8870 Cl    319 CCL4  -0.0812 
1699 CL       6.8699     6.7973    -7.2464 Cl    319 CCL4  -0.0812 
1700 CL     -17.1372     7.2836    -3.7392 Cl    320 CCL4  -0.0812 
1701 C      -16.3701     5.7040    -4.1631 C.3   320 CCL4   0.3246 
1702 CL     -17.7778     4.6576    -4.5099 Cl    320 CCL4  -0.0812 
1703 CL     -15.5398     5.2198    -2.6823 Cl    320 CCL4  -0.0812 
1704 CL     -15.2102     5.6381    -5.4840 Cl    320 CCL4  -0.0812 
1705 CL      -7.2280    13.6705    -9.8628 Cl    321 CCL4  -0.0812 
1706 C       -6.3271    14.7432    -8.7890 C.3   321 CCL4   0.3246 
1707 CL      -5.1672    15.8306    -9.5975 Cl    321 CCL4  -0.0812 
1708 CL      -5.3551    13.6585    -7.5411 Cl    321 CCL4  -0.0812 
1709 CL      -7.4331    15.7087    -7.8094 Cl    321 CCL4  -0.0812 
1710 CL      -8.3053    16.9901   -11.0444 Cl    322 CCL4  -0.0812 
1711 C       -9.8793    17.2677   -10.1749 C.3   322 CCL4   0.3246 
1712 CL      -9.6060    18.2158    -8.7425 Cl    322 CCL4  -0.0812 
1713 CL     -10.5806    15.6505    -9.7294 Cl    322 CCL4  -0.0812 
1714 CL     -10.9091    18.1498   -11.2266 Cl    322 CCL4  -0.0812 
1715 CL      -3.2966     9.1441   -11.4814 Cl    323 CCL4  -0.0812 
1716 C       -4.8350     9.5685   -10.8928 C.3   323 CCL4   0.3246 
1717 CL      -5.9169     9.8873   -12.3354 Cl    323 CCL4  -0.0812 
1718 CL      -4.7453    11.0184    -9.9552 Cl    323 CCL4  -0.0812 
1719 CL      -5.5698     8.2855    -9.9655 Cl    323 CCL4  -0.0812 
1720 CL      -6.4798    10.4937    -5.0711 Cl    324 CCL4  -0.0812 
1721 C       -7.5102     9.5121    -6.0332 C.3   324 CCL4   0.3246 
1722 CL      -7.9888    10.3833    -7.5053 Cl    324 CCL4  -0.0812 
1723 CL      -8.9206     9.1554    -5.0633 Cl    324 CCL4  -0.0812 
1724 CL      -6.7109     8.0291    -6.4470 Cl    324 CCL4  -0.0812 
1725 CL      -1.9206    18.0828    -7.2123 Cl    325 CCL4  -0.0812 
1726 C       -1.3232    16.8805    -6.1057 C.3   325 CCL4   0.3246 
1727 CL      -2.0813    15.3108    -6.5099 Cl    325 CCL4  -0.0812 
1728 CL      -1.7850    17.2876    -4.4031 Cl    325 CCL4  -0.0812 
1729 CL       0.4404    16.6707    -6.1187 Cl    325 CCL4  -0.0812 
1730 CL     -12.2118    13.4160    -4.2976 Cl    326 CCL4  -0.0812 
1731 C      -10.7268    13.7033    -5.2408 C.3   326 CCL4   0.3246 
1732 CL     -11.0978    13.3691    -6.9262 Cl    326 CCL4  -0.0812 
1733 CL      -9.5243    12.6364    -4.5911 Cl    326 CCL4  -0.0812 
1734 CL     -10.3007    15.4706    -5.1349 Cl    326 CCL4  -0.0812 
1735 CL       4.1693    17.9276    -4.8065 Cl    327 CCL4  -0.0812 
1736 C        5.5185    17.1219    -3.9065 C.3   327 CCL4   0.3246 
1737 CL       7.1163    17.5123    -4.7292 Cl    327 CCL4  -0.0812 
1738 CL       5.2674    15.3634    -3.9693 Cl    327 CCL4  -0.0812 
1739 CL       5.5248    17.8079    -2.2417 Cl    327 CCL4  -0.0812 
1740 CL     -13.9098    13.1385   -11.0227 Cl    328 CCL4  -0.0812 
1741 C      -15.0050    12.1762   -10.0877 C.3   328 CCL4   0.3246 
1742 CL     -16.6914    12.4688   -10.5532 Cl    328 CCL4  -0.0812 
1743 CL     -14.9284    12.7371    -8.4530 Cl    328 CCL4  -0.0812 
1744 CL     -14.5874    10.4634   -10.1980 Cl    328 CCL4  -0.0812 
1745 CL       2.6046     7.1381   -12.4517 Cl    329 CCL4  -0.0812 
1746 C        3.6069     5.6322   -12.2527 C.3   329 CCL4   0.3246 
1747 CL       2.9494     4.8842   -10.7640 Cl    329 CCL4  -0.0812 
1748 CL       5.3279     6.0848   -11.7913 Cl    329 CCL4  -0.0812 
1749 CL       3.5375     4.6504   -13.7587 Cl    329 CCL4  -0.0812 
1750 CL     -10.7166     7.7571    -2.6845 Cl    330 CCL4  -0.0812 
1751 C      -11.9985     8.8456    -2.0557 C.3   330 CCL4   0.3246 
1752 CL     -12.2255     8.3116    -0.3455 Cl    330 CCL4  -0.0812 
1753 CL     -13.4463     8.7211    -3.0248 Cl    330 CCL4  -0.0812 
1754 CL     -11.4737    10.5487    -2.0815 Cl    330 CCL4  -0.0812 
1755 CL     -18.4994     9.1946     0.7836 Cl    331 CCL4  -0.0812 
1756 C      -16.8534     9.6469     0.9092 C.3   331 CCL4   0.3246 
1757 CL     -16.5495    11.3982     1.1315 Cl    331 CCL4  -0.0812 
1758 CL     -16.0084     9.1120    -0.5668 Cl    331 CCL4  -0.0812 
1759 CL     -16.0981     8.7377     2.1566 Cl    331 CCL4  -0.0812 
1760 CL       5.4082    17.8432   -10.7821 Cl    332 CCL4  -0.0812 
1761 C        4.4460    18.6341    -9.5205 C.3   332 CCL4   0.3246 
1762 CL       5.4775    19.2496    -8.2183 Cl    332 CCL4  -0.0812 
1763 CL       3.2307    17.6523    -8.7829 Cl    332 CCL4  -0.0812 
1764 CL       3.7363    20.2349   -10.2777 Cl    332 CCL4  -0.0812 
1765 CL     -11.8553    19.0751    -3.6680 Cl    333 CCL4  -0.0812 
1766 C      -13.3793    18.6655    -4.4473 C.3   333 CCL4   0.3246 
1767 CL     -14.7727    19.4103    -3.7248 Cl    333 CCL4  -0.0812 
1768 CL     -13.5377    16.8840    -4.4720 Cl    333 CCL4  -0.0812 
1769 CL     -13.2964    19.1654    -6.1078 Cl    333 CCL4  -0.0812 
1770 CL      -5.7731    18.8771    -3.1251 Cl    334 CCL4  -0.0812 
1771 C       -6.4069    19.0097    -4.7840 C.3   334 CCL4   0.3246 
1772 CL      -5.3975    18.1964    -5.9706 Cl    334 CCL4  -0.0812 
1773 CL      -6.6178    20.8069    -5.2389 Cl    334 CCL4  -0.0812 
1774 CL      -7.9681    18.2591    -4.8844 Cl    334 CCL4  -0.0812 
1775 CL     -15.8986    17.9003    -7.6763 Cl    335 CCL4  -0.0812 
1776 C      -14.8148    17.3022    -8.9453 C.3   335 CCL4   0.3246 
1777 CL     -15.7612    15.9706    -9.6494 Cl    335 CCL4  -0.0812 
1778 CL     -13.4828    16.4503    -8.1319 Cl    335 CCL4  -0.0812 
1779 CL     -14.3071    18.5536   -10.1131 Cl    335 CCL4  -0.0812 
1780 CL      -2.5766    21.3794    -3.5467 Cl    336 CCL4  -0.0812 
1781 C       -2.4654    21.1965    -1.8080 C.3   336 CCL4   0.3246 
1782 CL      -0.7843    21.8768    -1.3751 Cl    336 CCL4  -0.0812 
1783 CL      -2.5730    19.4406    -1.4159 Cl    336 CCL4  -0.0812 
1784 CL      -3.6594    22.1322    -0.9283 Cl    336 CCL4  -0.0812 
1785 CL      -0.3034    19.4943   -18.1167 Cl    337 CCL4  -0.0812 
1786 C        0.2276    20.8417   -17.1365 C.3   337 CCL4   0.3246 
1787 CL      -0.0194    22.4087   -18.0343 Cl    337 CCL4  -0.0812 
1788 CL       1.9798    20.6109   -16.8780 Cl    337 CCL4  -0.0812 
1789 CL      -0.7067    20.8936   -15.5632 Cl    337 CCL4  -0.0812 
1790 CL      -2.1373    13.6876   -15.2224 Cl    338 CCL4  -0.0812 
1791 C       -2.6873    12.3156   -14.2646 C.3   338 CCL4   0.3246 
1792 CL      -3.6739    12.8674   -12.8993 Cl    338 CCL4  -0.0812 
1793 CL      -1.2576    11.5158   -13.6630 Cl    338 CCL4  -0.0812 
1794 CL      -3.7242    11.2468   -15.3319 Cl    338 CCL4  -0.0812 
1795 CL       2.9555    14.7549     0.0988 Cl    339 CCL4  -0.0812 
1796 C        3.7537    13.4555     1.0148 C.3   339 CCL4   0.3246 
1797 CL       2.3779    12.6197     1.7379 Cl    339 CCL4  -0.0812 
1798 CL       4.7731    14.2372     2.1636 Cl    339 CCL4  -0.0812 
1799 CL       4.5790    12.3905    -0.0324 Cl    339 CCL4  -0.0812 
1800 CL       2.7039    15.7775    20.9753 Cl    340 CCL4  -0.0812 
1801 C        4.1757    16.7355    20.8709 C.3   340 CCL4   0.3246 
1802 CL       5.6562    15.7198    21.0056 Cl    340 CCL4  -0.0812 
1803 CL       4.2617    18.0222    22.0547 Cl    340 CCL4  -0.0812 
1804 CL       4.2964    17.5659    19.2706 Cl    340 CCL4  -0.0812 
1805 CL       1.7031    10.4603   -15.2701 Cl    341 CCL4  -0.0812 
1806 C        2.4263    12.0430   -15.2324 C.3   341 CCL4   0.3246 
1807 CL       2.7587    12.4096   -13.4447 Cl    341 CCL4  -0.0812 
1808 CL       1.2887    13.3082   -15.7570 Cl    341 CCL4  -0.0812 
1809 CL       3.9105    12.2377   -16.1615 Cl    341 CCL4  -0.0812 
1810 CL       3.3293    19.2439   -13.9583 Cl    342 CCL4  -0.0812 
1811 C        2.7911    17.4830   -14.0431 C.3   342 CCL4   0.3246 
1812 CL       1.3384    17.4846   -15.1119 Cl    342 CCL4  -0.0812 
1813 CL       2.4870    16.8871   -12.4195 Cl    342 CCL4  -0.0812 
1814 CL       4.1503    16.4944   -14.6462 Cl    342 CCL4  -0.0812 
1815 CL      -1.3379    13.1273   -19.0483 Cl    343 CCL4  -0.0812 
1816 C       -0.4704    11.6426   -18.9932 C.3   343 CCL4   0.3246 
1817 CL      -0.9894    10.4045   -20.2058 Cl    343 CCL4  -0.0812 
1818 CL      -0.8254    10.8368   -17.3090 Cl    343 CCL4  -0.0812 
1819 CL       1.3250    11.7991   -19.0360 Cl    343 CCL4  -0.0812 
1820 CL      -2.8219     8.0409   -17.0199 Cl    344 CCL4  -0.0812 
1821 C       -2.4477     7.2226   -15.5049 C.3   344 CCL4   0.3246 
1822 CL      -1.1516     8.0397   -14.6530 Cl    344 CCL4  -0.0812 
1823 CL      -1.9079     5.5316   -15.8004 Cl    344 CCL4  -0.0812 
1824 CL      -3.9320     7.0181   -14.4227 Cl    344 CCL4  -0.0812 
1825 CL       1.4044     4.8878   -18.7484 Cl    345 CCL4  -0.0812 
1826 C        1.4882     6.3767   -17.8105 C.3   345 CCL4   0.3246 
1827 CL       1.4904     6.1771   -16.1094 Cl    345 CCL4  -0.0812 
1828 CL       0.2031     7.4894   -18.2834 Cl    345 CCL4  -0.0812 
1829 CL       2.9079     7.4399   -18.3268 Cl    345 CCL4  -0.0812 
1830 CL       1.0943    13.2222    -9.8241 Cl    346 CCL4  -0.0812 
1831 C       -0.1641    14.3129   -10.4708 C.3   346 CCL4   0.3246 
1832 CL      -1.8703    13.6090    -9.9426 Cl    346 CCL4  -0.0812 
1833 CL      -0.1436    14.3848   -12.2423 Cl    346 CCL4  -0.0812 
1834 CL      -0.2353    15.9184    -9.6864 Cl    346 CCL4  -0.0812 
1835 CL      -2.8918    17.4356   -11.4062 Cl    347 CCL4  -0.0812 
1836 C       -3.5696    17.7852   -12.9695 C.3   347 CCL4   0.3246 
1837 CL      -4.3880    16.2878   -13.4010 Cl    347 CCL4  -0.0812 
1838 CL      -2.4353    18.1966   -14.3027 Cl    347 CCL4  -0.0812 
1839 CL      -4.8098    19.0684   -12.9418 Cl    347 CCL4  -0.0812 
1840 CL      -0.5403    10.2650    -8.9317 Cl    348 CCL4  -0.0812 
1841 C        0.9387     9.5814    -9.6212 C.3   348 CCL4   0.3246 
1842 CL       1.1532    10.3441   -11.2602 Cl    348 CCL4  -0.0812 
1843 CL       0.8341     7.8298    -9.7324 Cl    348 CCL4  -0.0812 
1844 CL       2.3504     9.9691    -8.6363 Cl    348 CCL4  -0.0812 
1845 CL       1.9547     4.6116    -5.5195 Cl    349 CCL4  -0.0812 
1846 C        3.4379     5.4204    -6.1149 C.3   349 CCL4   0.3246 
1847 CL       2.9092     6.6372    -7.3136 Cl    349 CCL4  -0.0812 
1848 CL       4.5404     4.2232    -6.7856 Cl    349 CCL4  -0.0812 
1849 CL       4.2603     6.0889    -4.7168 Cl    349 CCL4  -0.0812 
1850 CL     -15.5602    11.8200    -4.7558 Cl    350 CCL4  -0.0812 
1851 C      -15.9883    12.8215    -3.3817 C.3   350 CCL4   0.3246 
1852 CL     -16.3602    14.4994    -3.8137 Cl    350 CCL4  -0.0812 
1853 CL     -17.5538    12.2511    -2.6771 Cl    350 CCL4  -0.0812 
1854 CL     -14.7455    12.7097    -2.1030 Cl    350 CCL4  -0.0812 
1855 CL       0.9493    19.1384    -0.1050 Cl    351 CCL4  -0.0812 
1856 C        2.5468    18.7699    -0.7834 C.3   351 CCL4   0.3246 
1857 CL       3.1947    20.2676    -1.6385 Cl    351 CCL4  -0.0812 
1858 CL       2.3591    17.4493    -1.9143 Cl    351 CCL4  -0.0812 
1859 CL       3.6993    18.2778     0.5660 Cl    351 CCL4  -0.0812 
1860 CL      -3.3112     8.2774    -4.9616 Cl    352 CCL4  -0.0812 
1861 C       -2.1969     7.6437    -6.2640 C.3   352 CCL4   0.3246 
1862 CL      -1.9903     5.9112    -6.0600 Cl    352 CCL4  -0.0812 
1863 CL      -0.7515     8.5464    -5.9015 Cl    352 CCL4  -0.0812 
1864 CL      -2.8529     8.1434    -7.8266 Cl    352 CCL4  -0.0812 
1865 CL       3.9864    11.6186    -3.5965 Cl    353 CCL4  -0.0812 
1866 C        3.9809     9.9715    -4.0196 C.3   353 CCL4   0.3246 
1867 CL       4.4451     9.0493    -2.5212 Cl    353 CCL4  -0.0812 
1868 CL       5.1349     9.5984    -5.2277 Cl    353 CCL4  -0.0812 
1869 CL       2.3805     9.4768    -4.4329 Cl    353 CCL4  -0.0812 
1870 CL      -3.9133    19.1218    20.1419 Cl    354 CCL4  -0.0812 
1871 C       -4.3385    20.9197    19.7706 C.3   354 CCL4   0.3246 
1872 CL      -3.4288    22.0363    20.7816 Cl    354 CCL4  -0.0812 
1873 CL      -6.0729    21.1405    20.1893 Cl    354 CCL4  -0.0812 
1874 CL      -3.9423    21.2746    18.1055 Cl    354 CCL4  -0.0812 
1875 CL     -17.1346    18.1840     8.6838 Cl    355 CCL4  -0.0812 
1876 C      -17.3689    19.8255     9.3480 C.3   355 CCL4   0.3246 
1877 CL     -18.8637    20.4524     8.6398 Cl    355 CCL4  -0.0812 
1878 CL     -15.9459    20.8820     9.1255 Cl    355 CCL4  -0.0812 
1879 CL     -17.5806    19.6147    11.1114 Cl    355 CCL4  -0.0812 
1880 CL      -5.4777    16.2298     5.5430 Cl    356 CCL4  -0.0812 
1881 C       -4.9764    16.2297     7.1635 C.3   356 CCL4   0.3246 
1882 CL      -5.3128    14.7340     7.9482 Cl    356 CCL4  -0.0812 
1883 CL      -5.5346    17.5851     8.0496 Cl    356 CCL4  -0.0812 
1884 CL      -3.1843    16.3562     7.1412 Cl    356 CCL4  -0.0812 
1885 CL      -7.5930     7.0603    11.3307 Cl    357 CCL4  -0.0812 
1886 C       -8.1908     8.0781     9.9355 C.3   357 CCL4   0.3246 
1887 CL      -9.4293     7.2994     8.8529 Cl    357 CCL4  -0.0812 
1888 CL      -6.8132     8.6389     8.9364 Cl    357 CCL4  -0.0812 
1889 CL      -8.9216     9.6169    10.6760 Cl    357 CCL4  -0.0812 
1890 CL     -13.3246    18.5364    10.5775 Cl    358 CCL4  -0.0812 
1891 C      -13.0384    16.7814    10.7047 C.3   358 CCL4   0.3246 
1892 CL     -13.2831    16.2662    12.3955 Cl    358 CCL4  -0.0812 
1893 CL     -11.4992    16.1820    10.1412 Cl    358 CCL4  -0.0812 
1894 CL     -14.2924    15.9682     9.7368 Cl    358 CCL4  -0.0812 
1895 CL      -7.8788    15.6187    10.4102 Cl    359 CCL4  -0.0812 
1896 C       -8.3873    13.8914    10.6264 C.3   359 CCL4   0.3246 
1897 CL      -6.9603    12.9480    11.0906 Cl    359 CCL4  -0.0812 
1898 CL      -9.0485    13.2087     9.1740 Cl    359 CCL4  -0.0812 
1899 CL      -9.4830    13.7760    12.0773 Cl    359 CCL4  -0.0812 
1900 CL     -12.9845     7.7411     6.5137 Cl    360 CCL4  -0.0812 
1901 C      -14.7659     7.2151     6.6629 C.3   360 CCL4   0.3246 
1902 CL     -14.7812     5.5220     6.8692 Cl    360 CCL4  -0.0812 
1903 CL     -15.7352     7.6469     5.1752 Cl    360 CCL4  -0.0812 
1904 CL     -15.4273     8.1450     8.0858 Cl    360 CCL4  -0.0812 
1905 CL      -8.7952     7.6521    14.4174 Cl    361 CCL4  -0.0812 
1906 C       -9.2961     6.0162    14.7728 C.3   361 CCL4   0.3246 
1907 CL      -8.0635     4.8857    14.2297 Cl    361 CCL4  -0.0812 
1908 CL     -10.7335     5.6070    13.8186 Cl    361 CCL4  -0.0812 
1909 CL      -9.6256     5.8534    16.4593 Cl    361 CCL4  -0.0812 
1910 CL     -12.4723     8.3754    10.3556 Cl    362 CCL4  -0.0812 
1911 C      -13.2162     8.8661    11.9068 C.3   362 CCL4   0.3246 
1912 CL     -11.9923     9.3547    12.9796 Cl    362 CCL4  -0.0812 
1913 CL     -14.0932     7.4525    12.5228 Cl    362 CCL4  -0.0812 
1914 CL     -14.4068    10.2087    11.6020 Cl    362 CCL4  -0.0812 
1915 CL       6.1405     6.2821     6.7438 Cl    363 CCL4  -0.0812 
1916 C        5.9719     5.5544     5.1298 C.3   363 CCL4   0.3246 
1917 CL       4.6091     4.3900     5.0335 Cl    363 CCL4  -0.0812 
1918 CL       7.5652     4.9220     4.7019 Cl    363 CCL4  -0.0812 
1919 CL       5.6266     6.9412     4.0249 Cl    363 CCL4  -0.0812 
1920 CL      -3.4220    13.8167     0.8693 Cl    364 CCL4  -0.0812 
1921 C       -2.4212    12.4906     1.6230 C.3   364 CCL4   0.3246 
1922 CL      -2.0041    11.4120     0.2793 Cl    364 CCL4  -0.0812 
1923 CL      -3.3574    11.6939     2.8605 Cl    364 CCL4  -0.0812 
1924 CL      -0.9936    13.2197     2.3664 Cl    364 CCL4  -0.0812 
1925 CL      -6.2479    13.0918     4.6249 Cl    365 CCL4  -0.0812 
1926 C       -6.4954    11.5211     5.3906 C.3   365 CCL4   0.3246 
1927 CL      -7.8742    11.5573     6.4741 Cl    365 CCL4  -0.0812 
1928 CL      -5.0383    11.0351     6.3358 Cl    365 CCL4  -0.0812 
1929 CL      -6.7181    10.2410     4.1116 Cl    365 CCL4  -0.0812 
1930 CL     -13.0492    11.3170     1.4437 Cl    366 CCL4  -0.0812 
1931 C      -12.5775    10.7237     3.0541 C.3   366 CCL4   0.3246 
1932 CL     -13.7576    11.3063     4.2132 Cl    366 CCL4  -0.0812 
1933 CL     -11.0405    11.4670     3.5064 Cl    366 CCL4  -0.0812 
1934 CL     -12.3726     8.9716     2.9797 Cl    366 CCL4  -0.0812 
1935 CL      -9.4506    17.7063     4.6769 Cl    367 CCL4  -0.0812 
1936 C       -9.8367    16.2512     5.7249 C.3   367 CCL4   0.3246 
1937 CL     -11.5402    16.2765     6.3354 Cl    367 CCL4  -0.0812 
1938 CL      -8.7103    16.1066     7.1235 Cl    367 CCL4  -0.0812 
1939 CL      -9.4534    14.8477     4.6959 Cl    367 CCL4  -0.0812 
1940 CL     -16.6198    14.2317     3.8638 Cl    368 CCL4  -0.0812 
1941 C      -15.3745    15.1654     4.6997 C.3   368 CCL4   0.3246 
1942 CL     -15.5645    14.7102     6.4970 Cl    368 CCL4  -0.0812 
1943 CL     -15.7485    16.9598     4.8039 Cl    368 CCL4  -0.0812 
1944 CL     -13.8634    14.6592     4.1099 Cl    368 CCL4  -0.0812 
1945 CL     -11.5995    10.6372     7.5933 Cl    369 CCL4  -0.0812 
1946 C      -12.6136    11.8765     8.3172 C.3   369 CCL4   0.3246 
1947 CL     -12.2843    13.4016     7.4736 Cl    369 CCL4  -0.0812 
1948 CL     -11.9927    12.1205    10.0353 Cl    369 CCL4  -0.0812 
1949 CL     -14.2891    11.3500     8.2899 Cl    369 CCL4  -0.0812 
1950 CL       7.6283    16.0653    11.5071 Cl    370 CCL4  -0.0812 
1951 C        7.2990    14.4377    10.8504 C.3   370 CCL4   0.3246 
1952 CL       6.0481    13.5988    11.7368 Cl    370 CCL4  -0.0812 
1953 CL       8.6914    13.4349    11.0842 Cl    370 CCL4  -0.0812 
1954 CL       6.8862    14.6865     9.0997 Cl    370 CCL4  -0.0812 
1955 CL       7.9132     8.0450    11.3059 Cl    371 CCL4  -0.0812 
1956 C        6.4477     8.9208    10.7812 C.3   371 CCL4   0.3246 
1957 CL       7.0127    10.1646     9.6284 Cl    371 CCL4  -0.0812 
1958 CL       5.5555     9.6697    12.0799 Cl    371 CCL4  -0.0812 
1959 CL       5.3462     7.8346     9.7959 Cl    371 CCL4  -0.0812 
1960 CL       5.4404     9.6901     6.1959 Cl    372 CCL4  -0.0812 
1961 C        5.9845    11.1993     5.4680 C.3   372 CCL4   0.3246 
1962 CL       7.2554    11.9800     6.5116 Cl    372 CCL4  -0.0812 
1963 CL       4.6724    12.4418     5.3729 Cl    372 CCL4  -0.0812 
1964 CL       6.6526    11.0884     3.9006 Cl    372 CCL4  -0.0812 
1965 CL     -12.9873    10.1087    18.9777 Cl    373 CCL4  -0.0812 
1966 C      -12.5150     8.6428    17.9879 C.3   373 CCL4   0.3246 
1967 CL     -14.0591     8.1261    17.2351 Cl    373 CCL4  -0.0812 
1968 CL     -11.7375     7.3226    18.9669 Cl    373 CCL4  -0.0812 
1969 CL     -11.4357     9.2278    16.7307 Cl    373 CCL4  -0.0812 
1970 CL      -7.2280    13.6705    15.1372 Cl    374 CCL4  -0.0812 
1971 C       -6.3271    14.7432    16.2110 C.3   374 CCL4   0.3246 
1972 CL      -5.1672    15.8306    15.4025 Cl    374 CCL4  -0.0812 
1973 CL      -5.3551    13.6585    17.4589 Cl    374 CCL4  -0.0812 
1974 CL      -7.4331    15.7087    17.1906 Cl    374 CCL4  -0.0812 
1975 CL      -8.3053    16.9901    13.9556 Cl    375 CCL4  -0.0812 
1976 C       -9.8793    17.2677    14.8251 C.3   375 CCL4   0.3246 
1977 CL      -9.6060    18.2158    16.2575 Cl    375 CCL4  -0.0812 
1978 CL     -10.5806    15.6505    15.2706 Cl    375 CCL4  -0.0812 
1979 CL     -10.9091    18.1498    13.7734 Cl    375 CCL4  -0.0812 
1980 CL      -3.2966     9.1441    13.5186 Cl    376 CCL4  -0.0812 
1981 C       -4.8350     9.5685    14.1072 C.3   376 CCL4   0.3246 
1982 CL      -5.9169     9.8873    12.6646 Cl    376 CCL4  -0.0812 
1983 CL      -4.7453    11.0184    15.0448 Cl    376 CCL4  -0.0812 
1984 CL      -5.5698     8.2855    15.0345 Cl    376 CCL4  -0.0812 
1985 CL     -13.9098    13.1385    13.9773 Cl    377 CCL4  -0.0812 
1986 C      -15.0050    12.1762    14.9123 C.3   377 CCL4   0.3246 
1987 CL     -16.6914    12.4688    14.4468 Cl    377 CCL4  -0.0812 
1988 CL     -14.9284    12.7371    16.5470 Cl    377 CCL4  -0.0812 
1989 CL     -14.5874    10.4634    14.8020 Cl    377 CCL4  -0.0812 
1990 CL       2.6046     7.1381    12.5483 Cl    378 CCL4  -0.0812 
1991 C        3.6069     5.6322    12.7473 C.3   378 CCL4   0.3246 
1992 CL       2.9494     4.8842    14.2360 Cl    378 CCL4  -0.0812 
1993 CL       5.3279     6.0848    13.2087 Cl    378 CCL4  -0.0812 
1994 CL       3.5375     4.6504    11.2413 Cl    378 CCL4  -0.0812 
1995 CL     -12.9777    17.5854     2.6953 Cl    379 CCL4  -0.0812 
1996 C      -12.4655    19.0373     1.9336 C.3   379 CCL4   0.3246 
1997 CL     -12.6658    20.3808     3.0152 Cl    379 CCL4  -0.0812 
1998 CL     -13.3109    19.4472     0.4594 Cl    379 CCL4  -0.0812 
1999 CL     -10.6790    19.0023     1.6181 Cl    379 CCL4  -0.0812 
2000 CL     -13.1801    19.5430     6.9387 Cl    380 CCL4  -0.0812 
2001 C      -12.9194    21.2555     6.8436 C.3   380 CCL4   0.3246 
2002 CL     -14.0413    22.1103     5.8794 Cl    380 CCL4  -0.0812 
2003 CL     -11.1959    21.4532     6.0723 Cl    380 CCL4  -0.0812 
2004 CL     -12.6805    21.9374     8.5022 Cl    380 CCL4  -0.0812 
2005 CL       5.4082    17.8432    14.2179 Cl    381 CCL4  -0.0812 
2006 C        4.4460    18.6341    15.4795 C.3   381 CCL4   0.3246 
2007 CL       5.4775    19.2496    16.7817 Cl    381 CCL4  -0.0812 
2008 CL       3.2307    17.6523    16.2171 Cl    381 CCL4  -0.0812 
2009 CL       3.7363    20.2349    14.7223 Cl    381 CCL4  -0.0812 
2010 CL      -4.4681    17.5129     2.0031 Cl    382 CCL4  -0.0812 
2011 C       -6.1698    17.5711     1.7177 C.3   382 CCL4   0.3246 
2012 CL      -6.8757    16.1078     2.1766 Cl    382 CCL4  -0.0812 
2013 CL      -6.5055    18.0215    -0.0222 Cl    382 CCL4  -0.0812 
2014 CL      -6.8245    18.9394     2.7346 Cl    382 CCL4  -0.0812 
2015 CL     -15.8986    17.9003    17.3237 Cl    383 CCL4  -0.0812 
2016 C      -14.8148    17.3022    16.0547 C.3   383 CCL4   0.3246 
2017 CL     -15.7612    15.9706    15.3506 Cl    383 CCL4  -0.0812 
2018 CL     -13.4828    16.4503    16.8681 Cl    383 CCL4  -0.0812 
2019 CL     -14.3071    18.5536    14.8869 Cl    383 CCL4  -0.0812 
2020 CL      -0.3034    19.4943     6.8833 Cl    384 CCL4  -0.0812 
2021 C        0.2276    20.8417     7.8635 C.3   384 CCL4   0.3246 
2022 CL      -0.0194    22.4087     6.9657 Cl    384 CCL4  -0.0812 
2023 CL       1.9798    20.6109     8.1220 Cl    384 CCL4  -0.0812 
2024 CL      -0.7067    20.8936     9.4368 Cl    384 CCL4  -0.0812 
2025 CL      -2.1373    13.6876     9.7776 Cl    385 CCL4  -0.0812 
2026 C       -2.6873    12.3156    10.7354 C.3   385 CCL4   0.3246 
2027 CL      -3.6739    12.8674    12.1007 Cl    385 CCL4  -0.0812 
2028 CL      -1.2576    11.5158    11.3370 Cl    385 CCL4  -0.0812 
2029 CL      -3.7242    11.2468     9.6681 Cl    385 CCL4  -0.0812 
2030 CL       2.7039    15.7775     5.9753 Cl    386 CCL4  -0.0812 
2031 C        4.1757    16.7355     5.8709 C.3   386 CCL4   0.3246 
2032 CL       5.6562    15.7198     6.0056 Cl    386 CCL4  -0.0812 
2033 CL       4.2617    18.0222     7.0547 Cl    386 CCL4  -0.0812 
2034 CL       4.2964    17.5659     4.2706 Cl    386 CCL4  -0.0812 
2035 CL       1.7031    10.4603     9.7299 Cl    387 CCL4  -0.0812 
2036 C        2.4263    12.0430     9.7676 C.3   387 CCL4   0.3246 
2037 CL       2.7587    12.4096    11.5553 Cl    387 CCL4  -0.0812 
2038 CL       1.2887    13.3082     9.2430 Cl    387 CCL4  -0.0812 
2039 CL       3.9105    12.2377     8.8385 Cl    387 CCL4  -0.0812 
2040 CL       3.3293    19.2439    11.0417 Cl    388 CCL4  -0.0812 
2041 C        2.7911    17.4830    10.9569 C.3   388 CCL4   0.3246 
2042 CL       1.3384    17.4846     9.8881 Cl    388 CCL4  -0.0812 
2043 CL       2.4870    16.8871    12.5805 Cl    388 CCL4  -0.0812 
2044 CL       4.1503    16.4944    10.3538 Cl    388 CCL4  -0.0812 
2045 CL      -1.3379    13.1273     5.9517 Cl    389 CCL4  -0.0812 
2046 C       -0.4704    11.6426     6.0068 C.3   389 CCL4   0.3246 
2047 CL      -0.9894    10.4045     4.7942 Cl    389 CCL4  -0.0812 
2048 CL      -0.8254    10.8368     7.6910 Cl    389 CCL4  -0.0812 
2049 CL       1.3250    11.7991     5.9640 Cl    389 CCL4  -0.0812 
2050 CL      -2.8219     8.0409     7.9801 Cl    390 CCL4  -0.0812 
2051 C       -2.4477     7.2226     9.4951 C.3   390 CCL4   0.3246 
2052 CL      -1.1516     8.0397    10.3470 Cl    390 CCL4  -0.0812 
2053 CL      -1.9079     5.5316     9.1996 Cl    390 CCL4  -0.0812 
2054 CL      -3.9320     7.0181    10.5773 Cl    390 CCL4  -0.0812 
2055 CL       1.0002    16.9485     3.0086 Cl    391 CCL4  -0.0812 
2056 C       -0.6847    17.2551     2.5650 C.3   391 CCL4   0.3246 
2057 CL      -1.7126    16.4412     3.7542 Cl    391 CCL4  -0.0812 
2058 CL      -1.1007    16.6574     0.9226 Cl    391 CCL4  -0.0812 
2059 CL      -1.2175    18.9477     2.6638 Cl    391 CCL4  -0.0812 
2060 CL       1.4044     4.8878     6.2516 Cl    392 CCL4  -0.0812 
2061 C        1.4882     6.3767     7.1895 C.3   392 CCL4   0.3246 
2062 CL       1.4904     6.1771     8.8906 Cl    392 CCL4  -0.0812 
2063 CL       0.2031     7.4894     6.7166 Cl    392 CCL4  -0.0812 
2064 CL       2.9079     7.4399     6.6732 Cl    392 CCL4  -0.0812 
2065 CL       1.0943    13.2222    15.1759 Cl    393 CCL4  -0.0812 
2066 C       -0.1641    14.3129    14.5292 C.3   393 CCL4   0.3246 
2067 CL      -1.8703    13.6090    15.0574 Cl    393 CCL4  -0.0812 
2068 CL      -0.1436    14.3848    12.7577 Cl    393 CCL4  -0.0812 
2069 CL      -0.2353    15.9184    15.3136 Cl    393 CCL4  -0.0812 
2070 CL      -2.8918    17.4356    13.5938 Cl    394 CCL4  -0.0812 
2071 C       -3.5696    17.7852    12.0305 C.3   394 CCL4   0.3246 
2072 CL      -4.3880    16.2878    11.5990 Cl    394 CCL4  -0.0812 
2073 CL      -2.4353    18.1966    10.6973 Cl    394 CCL4  -0.0812 
2074 CL      -4.8098    19.0684    12.0582 Cl    394 CCL4  -0.0812 
2075 CL      -0.5403    10.2650    16.0683 Cl    395 CCL4  -0.0812 
2076 C        0.9387     9.5814    15.3788 C.3   395 CCL4   0.3246 
2077 CL       1.1532    10.3441    13.7398 Cl    395 CCL4  -0.0812 
2078 CL       0.8341     7.8298    15.2676 Cl    395 CCL4  -0.0812 
2079 CL       2.3504     9.9691    16.3637 Cl    395 CCL4  -0.0812 
2080 CL      -3.9133    19.1218     5.1419 Cl    396 CCL4  -0.0812 
2081 C       -4.3385    20.9197     4.7706 C.3   396 CCL4   0.3246 
2082 CL      -3.4288    22.0363     5.7816 Cl    396 CCL4  -0.0812 
2083 CL      -6.0729    21.1405     5.1893 Cl    396 CCL4  -0.0812 
2084 CL      -3.9423    21.2746     3.1055 Cl    396 CCL4  -0.0812 
2085 CL       7.8654    -6.8160   -16.3162 Cl    397 CCL4  -0.0812 
2086 C        7.6311    -5.1745   -15.6520 C.3   397 CCL4   0.3246 
2087 CL       6.1363    -4.5476   -16.3602 Cl    397 CCL4  -0.0812 
2088 CL       9.0541    -4.1180   -15.8745 Cl    397 CCL4  -0.0812 
2089 CL       7.4194    -5.3853   -13.8886 Cl    397 CCL4  -0.0812 
2090 CL      17.4070    22.0603   -13.6693 Cl    398 CCL4  -0.0812 
2091 C       16.8092    23.0781   -15.0645 C.3   398 CCL4   0.3246 
2092 CL      15.5707    22.2994   -16.1471 Cl    398 CCL4  -0.0812 
2093 CL      18.1868    23.6389   -16.0636 Cl    398 CCL4  -0.0812 
2094 CL      16.0784    24.6169   -14.3240 Cl    398 CCL4  -0.0812 
2095 CL      11.6754    -6.4636   -14.4225 Cl    399 CCL4  -0.0812 
2096 C       11.9616    -8.2186   -14.2953 C.3   399 CCL4   0.3246 
2097 CL      11.7169    -8.7338   -12.6045 Cl    399 CCL4  -0.0812 
2098 CL      13.5008    -8.8180   -14.8588 Cl    399 CCL4  -0.0812 
2099 CL      10.7076    -9.0318   -15.2632 Cl    399 CCL4  -0.0812 
2100 CL      13.1248     2.4184   -14.2401 Cl    400 CCL4  -0.0812 
2101 C       13.6590     3.9798   -14.9255 C.3   400 CCL4   0.3246 
2102 CL      12.7308     5.3948   -14.3918 Cl    400 CCL4  -0.0812 
2103 CL      13.8056     3.9900   -16.6730 Cl    400 CCL4  -0.0812 
2104 CL      15.2924     4.2455   -14.2684 Cl    400 CCL4  -0.0812 
2105 CL      17.1212    -9.3813   -14.5898 Cl    401 CCL4  -0.0812 
2106 C       16.6127   -11.1086   -14.3736 C.3   401 CCL4   0.3246 
2107 CL      18.0397   -12.0520   -13.9094 Cl    401 CCL4  -0.0812 
2108 CL      15.9515   -11.7913   -15.8260 Cl    401 CCL4  -0.0812 
2109 CL      15.5170   -11.2240   -12.9227 Cl    401 CCL4  -0.0812 
2110 CL      12.5277    23.3754   -14.6444 Cl    402 CCL4  -0.0812 
2111 C       11.7838    23.8661   -13.0932 C.3   402 CCL4   0.3246 
2112 CL      13.0077    24.3547   -12.0204 Cl    402 CCL4  -0.0812 
2113 CL      10.9068    22.4525   -12.4772 Cl    402 CCL4  -0.0812 
2114 CL      10.5932    25.2087   -13.3980 Cl    402 CCL4  -0.0812 
2115 CL      12.5683     2.8094    20.4637 Cl    403 CCL4  -0.0812 
2116 C       14.0899     3.0986    19.6058 C.3   403 CCL4   0.3246 
2117 CL      14.4262     4.8705    20.0449 Cl    403 CCL4  -0.0812 
2118 CL      13.8555     3.0307    17.8554 Cl    403 CCL4  -0.0812 
2119 CL      15.4502     2.0126    19.9889 Cl    403 CCL4  -0.0812 
2120 CL      14.5755    -9.1999     0.9918 Cl    404 CCL4  -0.0812 
2121 C       14.2695    -9.0498    -0.7134 C.3   404 CCL4   0.3246 
2122 CL      15.3399    -7.8815    -1.4964 Cl    404 CCL4  -0.0812 
2123 CL      12.5991    -8.5768    -1.0613 Cl    404 CCL4  -0.0812 
2124 CL      14.4342   -10.6720    -1.5295 Cl    404 CCL4  -0.0812 
2125 CL       7.4741    -7.6096     1.3805 Cl    405 CCL4  -0.0812 
2126 C        8.1764    -8.6074     0.0246 C.3   405 CCL4   0.3246 
2127 CL       9.5601    -9.4434     0.6989 Cl    405 CCL4  -0.0812 
2128 CL       8.7312    -7.4303    -1.1456 Cl    405 CCL4  -0.0812 
2129 CL       7.0600    -9.7753    -0.5867 Cl    405 CCL4  -0.0812 
2130 CL      15.5494    -7.2937    19.6769 Cl    406 CCL4  -0.0812 
2131 C       15.1633    -8.7488    20.7249 C.3   406 CCL4   0.3246 
2132 CL      13.4598    -8.7235    21.3354 Cl    406 CCL4  -0.0812 
2133 CL      16.2897    -8.8934    22.1235 Cl    406 CCL4  -0.0812 
2134 CL      15.5466   -10.1523    19.6959 Cl    406 CCL4  -0.0812 
2135 CL      13.4005   -14.3628   -17.4067 Cl    407 CCL4  -0.0812 
2136 C       12.3864   -13.1235   -16.6828 C.3   407 CCL4   0.3246 
2137 CL      12.7157   -11.5984   -17.5264 Cl    407 CCL4  -0.0812 
2138 CL      13.0073   -12.8795   -14.9647 Cl    407 CCL4  -0.0812 
2139 CL      10.7109   -13.6500   -16.7101 Cl    407 CCL4  -0.0812 
2140 CL       9.5130     4.7428   -15.0379 Cl    408 CCL4  -0.0812 
2141 C        8.1560     3.9799   -14.1485 C.3   408 CCL4   0.3246 
2142 CL       6.6371     4.5625   -14.9108 Cl    408 CCL4  -0.0812 
2143 CL       8.1651     4.5713   -12.4979 Cl    408 CCL4  -0.0812 
2144 CL       8.4243     2.2426   -14.2436 Cl    408 CCL4  -0.0812 
2145 CL      12.0127    25.1087    -6.0223 Cl    409 CCL4  -0.0812 
2146 C       12.4850    23.6428    -7.0121 C.3   409 CCL4   0.3246 
2147 CL      10.9409    23.1261    -7.7649 Cl    409 CCL4  -0.0812 
2148 CL      13.2625    22.3226    -6.0331 Cl    409 CCL4  -0.0812 
2149 CL      13.5643    24.2278    -8.2693 Cl    409 CCL4  -0.0812 
2150 CL      16.6947    -8.0099   -11.0444 Cl    410 CCL4  -0.0812 
2151 C       15.1207    -7.7323   -10.1749 C.3   410 CCL4   0.3246 
2152 CL      15.3940    -6.7842    -8.7425 Cl    410 CCL4  -0.0812 
2153 CL      14.4194    -9.3495    -9.7294 Cl    410 CCL4  -0.0812 
2154 CL      14.0909    -6.8502   -11.2266 Cl    410 CCL4  -0.0812 
2155 CL      15.0024     1.6938    -5.0725 Cl    411 CCL4  -0.0812 
2156 C       14.4134     3.3036    -4.3545 C.3   411 CCL4   0.3246 
2157 CL      14.5439     3.0578    -2.6089 Cl    411 CCL4  -0.0812 
2158 CL      12.8326     3.8823    -4.7501 Cl    411 CCL4  -0.0812 
2159 CL      15.6414     4.5896    -4.7760 Cl    411 CCL4  -0.0812 
2160 CL      12.7882   -11.5840    -4.2976 Cl    412 CCL4  -0.0812 
2161 C       14.2732   -11.2967    -5.2408 C.3   412 CCL4   0.3246 
2162 CL      13.9022   -11.6309    -6.9262 Cl    412 CCL4  -0.0812 
2163 CL      15.4757   -12.3636    -4.5911 Cl    412 CCL4  -0.0812 
2164 CL      14.6993    -9.5294    -5.1349 Cl    412 CCL4  -0.0812 
2165 CL      11.0902   -11.8615   -11.0227 Cl    413 CCL4  -0.0812 
2166 C        9.9950   -12.8238   -10.0877 C.3   413 CCL4   0.3246 
2167 CL       8.3086   -12.5312   -10.5532 Cl    413 CCL4  -0.0812 
2168 CL      10.0716   -12.2629    -8.4530 Cl    413 CCL4  -0.0812 
2169 CL      10.4126   -14.5366   -10.1980 Cl    413 CCL4  -0.0812 
2170 CL      14.2834    22.7571    -2.6845 Cl    414 CCL4  -0.0812 
2171 C       13.0015    23.8456    -2.0557 C.3   414 CCL4   0.3246 
2172 CL      12.7745    23.3116    -0.3455 Cl    414 CCL4  -0.0812 
2173 CL      11.5537    23.7211    -3.0248 Cl    414 CCL4  -0.0812 
2174 CL      13.5263    25.5487    -2.0815 Cl    414 CCL4  -0.0812 
2175 CL      16.7374    -3.6476   -16.6106 Cl    415 CCL4  -0.0812 
2176 C       16.0471    -4.7778   -15.4142 C.3   415 CCL4   0.3246 
2177 CL      14.9110    -5.8731   -16.4130 Cl    415 CCL4  -0.0812 
2178 CL      15.0943    -3.7290   -14.2632 Cl    415 CCL4  -0.0812 
2179 CL      17.2159    -5.8468   -14.6498 Cl    415 CCL4  -0.0812 
2180 CL      16.0411     0.3547    -9.2290 Cl    416 CCL4  -0.0812 
2181 C       15.6530     0.0391   -10.9859 C.3   416 CCL4   0.3246 
2182 CL      14.4540    -1.3823   -11.0026 Cl    416 CCL4  -0.0812 
2183 CL      17.1962    -0.5481   -11.7488 Cl    416 CCL4  -0.0812 
2184 CL      15.0090     1.4204   -11.7356 Cl    416 CCL4  -0.0812 
2185 CL      12.1274    -0.9021   -13.8131 Cl    417 CCL4  -0.0812 
2186 C       11.0028    -1.6932   -12.7167 C.3   417 CCL4   0.3246 
2187 CL      11.4018    -3.3745   -12.4605 Cl    417 CCL4  -0.0812 
2188 CL       9.3585    -1.5708   -13.4632 Cl    417 CCL4  -0.0812 
2189 CL      10.9939    -0.9333   -11.0924 Cl    417 CCL4  -0.0812 
2190 CL      16.8549    -0.6699   -18.1758 Cl    418 CCL4  -0.0812 
2191 C       15.8634     0.1603   -16.8968 C.3   418 CCL4   0.3246 
2192 CL      15.9411    -0.5177   -15.2993 Cl    418 CCL4  -0.0812 
2193 CL      14.1375     0.2557   -17.2796 Cl    418 CCL4  -0.0812 
2194 CL      16.4734     1.8558   -16.8622 Cl    418 CCL4  -0.0812 
2195 CL      11.2598     4.7643    -9.0358 Cl    419 CCL4  -0.0812 
2196 C       11.8050     3.0732    -9.3276 C.3   419 CCL4   0.3246 
2197 CL      10.8450     1.9743    -8.3503 Cl    419 CCL4  -0.0812 
2198 CL      13.4698     2.7981    -8.9271 Cl    419 CCL4  -0.0812 
2199 CL      11.6136     2.6406   -11.0058 Cl    419 CCL4  -0.0812 
2200 CL      11.8199    -5.4570   -18.0613 Cl    420 CCL4  -0.0812 
2201 C       12.0806    -3.7445   -18.1564 C.3   420 CCL4   0.3246 
2202 CL      10.9587    -2.8897   -19.1206 Cl    420 CCL4  -0.0812 
2203 CL      13.8041    -3.5468   -18.9277 Cl    420 CCL4  -0.0812 
2204 CL      12.3195    -3.0626   -16.4978 Cl    420 CCL4  -0.0812 
2205 CL      13.1447    -5.9249    -3.6680 Cl    421 CCL4  -0.0812 
2206 C       11.6207    -6.3345    -4.4473 C.3   421 CCL4   0.3246 
2207 CL      10.2273    -5.5897    -3.7248 Cl    421 CCL4  -0.0812 
2208 CL      11.4623    -8.1160    -4.4720 Cl    421 CCL4  -0.0812 
2209 CL      11.7036    -5.8346    -6.1078 Cl    421 CCL4  -0.0812 
2210 CL      13.0367    -0.7128    -7.2420 Cl    422 CCL4  -0.0812 
2211 C       12.6782    -2.4972    -7.2266 C.3   422 CCL4   0.3246 
2212 CL      11.5310    -3.0707    -8.4057 Cl    422 CCL4  -0.0812 
2213 CL      11.9146    -2.7309    -5.5749 Cl    422 CCL4  -0.0812 
2214 CL      14.1657    -3.5056    -7.2838 Cl    422 CCL4  -0.0812 
2215 CL       9.5770     1.8054    -4.8213 Cl    423 CCL4  -0.0812 
2216 C       10.1160     0.7326    -3.4171 C.3   423 CCL4   0.3246 
2217 CL       9.2847    -0.8104    -3.5014 Cl    423 CCL4  -0.0812 
2218 CL       9.6313     1.5438    -1.9414 Cl    423 CCL4  -0.0812 
2219 CL      11.9323     0.5120    -3.6311 Cl    423 CCL4  -0.0812 
2220 CL      14.9837    -3.0480    -3.6919 Cl    424 CCL4  -0.0812 
2221 C       14.5348    -2.5583    -2.0443 C.3   424 CCL4   0.3246 
2222 CL      15.2117    -3.9737    -1.1099 Cl    424 CCL4  -0.0812 
2223 CL      12.7566    -2.4913    -1.8213 Cl    424 CCL4  -0.0812 
2224 CL      15.2126    -0.9967    -1.5976 Cl    424 CCL4  -0.0812 
2225 CL       8.0605    -3.6182    -6.4462 Cl    425 CCL4  -0.0812 
2226 C        7.9696    -2.7556    -8.0034 C.3   425 CCL4   0.3246 
2227 CL       8.7979    -1.1147    -8.0073 Cl    425 CCL4  -0.0812 
2228 CL       6.2425    -2.2405    -8.1777 Cl    425 CCL4  -0.0812 
2229 CL       8.5671    -3.7214    -9.4040 Cl    425 CCL4  -0.0812 
2230 CL       9.1014    -7.0997    -7.6763 Cl    426 CCL4  -0.0812 
2231 C       10.1852    -7.6978    -8.9453 C.3   426 CCL4   0.3246 
2232 CL       9.2388    -9.0294    -9.6494 Cl    426 CCL4  -0.0812 
2233 CL      11.5172    -8.5497    -8.1319 Cl    426 CCL4  -0.0812 
2234 CL      10.6929    -6.4464   -10.1131 Cl    426 CCL4  -0.0812 
2235 CL       7.8654    -6.8160     8.6838 Cl    427 CCL4  -0.0812 
2236 C        7.6311    -5.1745     9.3480 C.3   427 CCL4   0.3246 
2237 CL       6.1363    -4.5476     8.6398 Cl    427 CCL4  -0.0812 
2238 CL       9.0541    -4.1180     9.1255 Cl    427 CCL4  -0.0812 
2239 CL       7.4194    -5.3853    11.1114 Cl    427 CCL4  -0.0812 
2240 CL      17.4070    22.0603    11.3307 Cl    428 CCL4  -0.0812 
2241 C       16.8092    23.0781     9.9355 C.3   428 CCL4   0.3246 
2242 CL      15.5707    22.2994     8.8529 Cl    428 CCL4  -0.0812 
2243 CL      18.1868    23.6389     8.9364 Cl    428 CCL4  -0.0812 
2244 CL      16.0784    24.6169    10.6760 Cl    428 CCL4  -0.0812 
2245 CL      11.6754    -6.4636    10.5775 Cl    429 CCL4  -0.0812 
2246 C       11.9616    -8.2186    10.7047 C.3   429 CCL4   0.3246 
2247 CL      11.7169    -8.7338    12.3955 Cl    429 CCL4  -0.0812 
2248 CL      13.5008    -8.8180    10.1412 Cl    429 CCL4  -0.0812 
2249 CL      10.7076    -9.0318     9.7368 Cl    429 CCL4  -0.0812 
2250 CL      13.1248     2.4184    10.7599 Cl    430 CCL4  -0.0812 
2251 C       13.6590     3.9798    10.0745 C.3   430 CCL4   0.3246 
2252 CL      12.7308     5.3948    10.6082 Cl    430 CCL4  -0.0812 
2253 CL      13.8056     3.9900     8.3270 Cl    430 CCL4  -0.0812 
2254 CL      15.2924     4.2455    10.7316 Cl    430 CCL4  -0.0812 
2255 CL      17.1212    -9.3813    10.4102 Cl    431 CCL4  -0.0812 
2256 C       16.6127   -11.1086    10.6264 C.3   431 CCL4   0.3246 
2257 CL      18.0397   -12.0520    11.0906 Cl    431 CCL4  -0.0812 
2258 CL      15.9515   -11.7913     9.1740 Cl    431 CCL4  -0.0812 
2259 CL      15.5170   -11.2240    12.0773 Cl    431 CCL4  -0.0812 
2260 CL      12.5277    23.3754    10.3556 Cl    432 CCL4  -0.0812 
2261 C       11.7838    23.8661    11.9068 C.3   432 CCL4   0.3246 
2262 CL      13.0077    24.3547    12.9796 Cl    432 CCL4  -0.0812 
2263 CL      10.9068    22.4525    12.5228 Cl    432 CCL4  -0.0812 
2264 CL      10.5932    25.2087    11.6020 Cl    432 CCL4  -0.0812 
2265 CL      12.5683     2.8094     5.4637 Cl    433 CCL4  -0.0812 
2266 C       14.0899     3.0986     4.6058 C.3   433 CCL4   0.3246 
2267 CL      14.4262     4.8705     5.0449 Cl    433 CCL4  -0.0812 
2268 CL      13.8555     3.0307     2.8554 Cl    433 CCL4  -0.0812 
2269 CL      15.4502     2.0126     4.9889 Cl    433 CCL4  -0.0812 
2270 CL      11.9508   -13.6830     1.4437 Cl    434 CCL4  -0.0812 
2271 C       12.4225   -14.2763     3.0541 C.3   434 CCL4   0.3246 
2272 CL      11.2424   -13.6937     4.2132 Cl    434 CCL4  -0.0812 
2273 CL      13.9595   -13.5330     3.5064 Cl    434 CCL4  -0.0812 
2274 CL      12.6274   -16.0284     2.9797 Cl    434 CCL4  -0.0812 
2275 CL      15.5494    -7.2937     4.6769 Cl    435 CCL4  -0.0812 
2276 C       15.1633    -8.7488     5.7249 C.3   435 CCL4   0.3246 
2277 CL      13.4598    -8.7235     6.3354 Cl    435 CCL4  -0.0812 
2278 CL      16.2897    -8.8934     7.1235 Cl    435 CCL4  -0.0812 
2279 CL      15.5466   -10.1523     4.6959 Cl    435 CCL4  -0.0812 
2280 CL       8.3802   -10.7683     3.8638 Cl    436 CCL4  -0.0812 
2281 C        9.6255    -9.8346     4.6997 C.3   436 CCL4   0.3246 
2282 CL       9.4355   -10.2898     6.4970 Cl    436 CCL4  -0.0812 
2283 CL       9.2515    -8.0402     4.8039 Cl    436 CCL4  -0.0812 
2284 CL      11.1366   -10.3408     4.1099 Cl    436 CCL4  -0.0812 
2285 CL      13.4005   -14.3628     7.5933 Cl    437 CCL4  -0.0812 
2286 C       12.3864   -13.1235     8.3172 C.3   437 CCL4   0.3246 
2287 CL      12.7157   -11.5984     7.4736 Cl    437 CCL4  -0.0812 
2288 CL      13.0073   -12.8795    10.0353 Cl    437 CCL4  -0.0812 
2289 CL      10.7109   -13.6500     8.2899 Cl    437 CCL4  -0.0812 
2290 CL       9.5130     4.7428     9.9621 Cl    438 CCL4  -0.0812 
2291 C        8.1560     3.9799    10.8515 C.3   438 CCL4   0.3246 
2292 CL       6.6371     4.5625    10.0892 Cl    438 CCL4  -0.0812 
2293 CL       8.1651     4.5713    12.5021 Cl    438 CCL4  -0.0812 
2294 CL       8.4243     2.2426    10.7564 Cl    438 CCL4  -0.0812 
2295 CL      11.1636     5.3288     3.1852 Cl    439 CCL4  -0.0812 
2296 C       10.4362     4.5613     1.6837 C.3   439 CCL4   0.3246 
2297 CL       9.1330     5.5708     0.9947 Cl    439 CCL4  -0.0812 
2298 CL      10.2512     2.8262     1.8643 Cl    439 CCL4  -0.0812 
2299 CL      11.9085     4.6807     0.5406 Cl    439 CCL4  -0.0812 
2300 CL      12.0127    25.1087    18.9777 Cl    440 CCL4  -0.0812 
2301 C       12.4850    23.6428    17.9879 C.3   440 CCL4   0.3246 
2302 CL      10.9409    23.1261    17.2351 Cl    440 CCL4  -0.0812 
2303 CL      13.2625    22.3226    18.9669 Cl    440 CCL4  -0.0812 
2304 CL      13.5643    24.2278    16.7307 Cl    440 CCL4  -0.0812 
2305 CL      16.6947    -8.0099    13.9556 Cl    441 CCL4  -0.0812 
2306 C       15.1207    -7.7323    14.8251 C.3   441 CCL4   0.3246 
2307 CL      15.3940    -6.7842    16.2575 Cl    441 CCL4  -0.0812 
2308 CL      14.4194    -9.3495    15.2706 Cl    441 CCL4  -0.0812 
2309 CL      14.0909    -6.8502    13.7734 Cl    441 CCL4  -0.0812 
2310 CL      11.0902   -11.8615    13.9773 Cl    442 CCL4  -0.0812 
2311 C        9.9950   -12.8238    14.9123 C.3   442 CCL4   0.3246 
2312 CL       8.3086   -12.5312    14.4468 Cl    442 CCL4  -0.0812 
2313 CL      10.0716   -12.2629    16.5470 Cl    442 CCL4  -0.0812 
2314 CL      10.4126   -14.5366    14.8020 Cl    442 CCL4  -0.0812 
2315 CL      16.7374    -3.6476     8.3894 Cl    443 CCL4  -0.0812 
2316 C       16.0471    -4.7778     9.5858 C.3   443 CCL4   0.3246 
2317 CL      14.9110    -5.8731     8.5870 Cl    443 CCL4  -0.0812 
2318 CL      15.0943    -3.7290    10.7368 Cl    443 CCL4  -0.0812 
2319 CL      17.2159    -5.8468    10.3502 Cl    443 CCL4  -0.0812 
2320 CL      16.0411     0.3547    15.7710 Cl    444 CCL4  -0.0812 
2321 C       15.6530     0.0391    14.0141 C.3   444 CCL4   0.3246 
2322 CL      14.4540    -1.3823    13.9974 Cl    444 CCL4  -0.0812 
2323 CL      17.1962    -0.5481    13.2512 Cl    444 CCL4  -0.0812 
2324 CL      15.0090     1.4204    13.2644 Cl    444 CCL4  -0.0812 
2325 CL      12.1274    -0.9021    11.1869 Cl    445 CCL4  -0.0812 
2326 C       11.0028    -1.6932    12.2833 C.3   445 CCL4   0.3246 
2327 CL      11.4018    -3.3745    12.5395 Cl    445 CCL4  -0.0812 
2328 CL       9.3585    -1.5708    11.5368 Cl    445 CCL4  -0.0812 
2329 CL      10.9939    -0.9333    13.9076 Cl    445 CCL4  -0.0812 
2330 CL      16.8549    -0.6699     6.8242 Cl    446 CCL4  -0.0812 
2331 C       15.8634     0.1603     8.1032 C.3   446 CCL4   0.3246 
2332 CL      15.9411    -0.5177     9.7007 Cl    446 CCL4  -0.0812 
2333 CL      14.1375     0.2557     7.7204 Cl    446 CCL4  -0.0812 
2334 CL      16.4734     1.8558     8.1378 Cl    446 CCL4  -0.0812 
2335 CL      12.0223    -7.4146     2.6953 Cl    447 CCL4  -0.0812 
2336 C       12.5345    -5.9627     1.9336 C.3   447 CCL4   0.3246 
2337 CL      12.3342    -4.6192     3.0152 Cl    447 CCL4  -0.0812 
2338 CL      11.6891    -5.5528     0.4594 Cl    447 CCL4  -0.0812 
2339 CL      14.3210    -5.9977     1.6181 Cl    447 CCL4  -0.0812 
2340 CL      12.4907    -0.1473     3.4418 Cl    448 CCL4  -0.0812 
2341 C       12.4362    -0.7236     1.7976 C.3   448 CCL4   0.3246 
2342 CL      12.5428     0.5863     0.6059 Cl    448 CCL4  -0.0812 
2343 CL      10.8942    -1.4742     1.6540 Cl    448 CCL4  -0.0812 
2344 CL      13.8288    -1.7554     1.4635 Cl    448 CCL4  -0.0812 
2345 CL       9.4233     1.0858     5.1860 Cl    449 CCL4  -0.0812 
2346 C        9.0208     0.9583     6.9949 C.3   449 CCL4   0.3246 
2347 CL       8.2106    -0.6554     7.1814 Cl    449 CCL4  -0.0812 
2348 CL       7.6968     2.1180     7.3333 Cl    449 CCL4  -0.0812 
2349 CL      10.4593     0.9713     7.9518 Cl    449 CCL4  -0.0812 
2350 CL      11.8199    -5.4570     6.9387 Cl    450 CCL4  -0.0812 
2351 C       12.0806    -3.7445     6.8436 C.3   450 CCL4   0.3246 
2352 CL      10.9587    -2.8897     5.8794 Cl    450 CCL4  -0.0812 
2353 CL      13.8041    -3.5468     6.0723 Cl    450 CCL4  -0.0812 
2354 CL      12.3195    -3.0626     8.5022 Cl    450 CCL4  -0.0812 
2355 CL       7.9579    -4.7249     5.3705 Cl    451 CCL4  -0.0812 
2356 C        7.6266    -3.9564     3.7973 C.3   451 CCL4   0.3246 
2357 CL       5.9875    -4.1572     3.2651 Cl    451 CCL4  -0.0812 
2358 CL       8.6278    -4.6206     2.5441 Cl    451 CCL4  -0.0812 
2359 CL       7.8517    -2.2292     3.9491 Cl    451 CCL4  -0.0812 
2360 CL       8.0605    -3.6182    18.5538 Cl    452 CCL4  -0.0812 
2361 C        7.9696    -2.7556    16.9966 C.3   452 CCL4   0.3246 
2362 CL       8.7979    -1.1147    16.9927 Cl    452 CCL4  -0.0812 
2363 CL       6.2425    -2.2405    16.8223 Cl    452 CCL4  -0.0812 
2364 CL       8.5671    -3.7214    15.5960 Cl    452 CCL4  -0.0812 
2365 CL       9.1014    -7.0997    17.3237 Cl    453 CCL4  -0.0812 
2366 C       10.1852    -7.6978    16.0547 C.3   453 CCL4   0.3246 
2367 CL       9.2388    -9.0294    15.3506 Cl    453 CCL4  -0.0812 
2368 CL      11.5172    -8.5497    16.8681 Cl    453 CCL4  -0.0812 
2369 CL      10.6929    -6.4464    14.8869 Cl    453 CCL4  -0.0812 
2370 CL       7.8654    18.1840   -16.3162 Cl    454 CCL4  -0.0812 
2371 C        7.6311    19.8255   -15.6520 C.3   454 CCL4   0.3246 
2372 CL       6.1363    20.4524   -16.3602 Cl    454 CCL4  -0.0812 
2373 CL       9.0541    20.8820   -15.8745 Cl    454 CCL4  -0.0812 
2374 CL       7.4194    19.6147   -13.8886 Cl    454 CCL4  -0.0812 
2375 CL      17.4070     7.0603   -13.6693 Cl    455 CCL4  -0.0812 
2376 C       16.8092     8.0781   -15.0645 C.3   455 CCL4   0.3246 
2377 CL      15.5707     7.2994   -16.1471 Cl    455 CCL4  -0.0812 
2378 CL      18.1868     8.6389   -16.0636 Cl    455 CCL4  -0.0812 
2379 CL      16.0784     9.6169   -14.3240 Cl    455 CCL4  -0.0812 
2380 CL      11.6754    18.5364   -14.4225 Cl    456 CCL4  -0.0812 
2381 C       11.9616    16.7814   -14.2953 C.3   456 CCL4   0.3246 
2382 CL      11.7169    16.2662   -12.6045 Cl    456 CCL4  -0.0812 
2383 CL      13.5008    16.1820   -14.8588 Cl    456 CCL4  -0.0812 
2384 CL      10.7076    15.9682   -15.2632 Cl    456 CCL4  -0.0812 
2385 CL      15.4472     5.6290     0.1222 Cl    457 CCL4  -0.0812 
2386 C       16.6297     6.0371     1.4146 C.3   457 CCL4   0.3246 
2387 CL      17.0979     4.4863     2.0637 Cl    457 CCL4  -0.0812 
2388 CL      15.6737     6.9138     2.6358 Cl    457 CCL4  -0.0812 
2389 CL      17.9838     6.9348     0.8509 Cl    457 CCL4  -0.0812 
2390 CL      18.7801    10.6885     0.5910 Cl    458 CCL4  -0.0812 
2391 C       17.1083    11.2857     0.4641 C.3   458 CCL4   0.3246 
2392 CL      16.7524    11.5377    -1.3295 Cl    458 CCL4  -0.0812 
2393 CL      16.7788    12.8093     1.3038 Cl    458 CCL4  -0.0812 
2394 CL      15.8745    10.0627     0.8890 Cl    458 CCL4  -0.0812 
2395 CL      17.1212    15.6187   -14.5898 Cl    459 CCL4  -0.0812 
2396 C       16.6127    13.8914   -14.3736 C.3   459 CCL4   0.3246 
2397 CL      18.0397    12.9480   -13.9094 Cl    459 CCL4  -0.0812 
2398 CL      15.9515    13.2087   -15.8260 Cl    459 CCL4  -0.0812 
2399 CL      15.5170    13.7760   -12.9227 Cl    459 CCL4  -0.0812 
2400 CL      12.0155     7.7411   -18.4863 Cl    460 CCL4  -0.0812 
2401 C       10.2341     7.2151   -18.3371 C.3   460 CCL4   0.3246 
2402 CL      10.2188     5.5220   -18.1308 Cl    460 CCL4  -0.0812 
2403 CL       9.2648     7.6469   -19.8248 Cl    460 CCL4  -0.0812 
2404 CL       9.5727     8.1450   -16.9142 Cl    460 CCL4  -0.0812 
2405 CL      16.2048     7.6521   -10.5826 Cl    461 CCL4  -0.0812 
2406 C       15.7039     6.0162   -10.2272 C.3   461 CCL4   0.3246 
2407 CL      16.9365     4.8857   -10.7703 Cl    461 CCL4  -0.0812 
2408 CL      14.2665     5.6070   -11.1814 Cl    461 CCL4  -0.0812 
2409 CL      15.3744     5.8534    -8.5407 Cl    461 CCL4  -0.0812 
2410 CL      12.5277     8.3754   -14.6444 Cl    462 CCL4  -0.0812 
2411 C       11.7838     8.8661   -13.0932 C.3   462 CCL4   0.3246 
2412 CL      13.0077     9.3547   -12.0204 Cl    462 CCL4  -0.0812 
2413 CL      10.9068     7.4525   -12.4772 Cl    462 CCL4  -0.0812 
2414 CL      10.5932    10.2087   -13.3980 Cl    462 CCL4  -0.0812 
2415 CL      14.5755    15.8001     0.9918 Cl    463 CCL4  -0.0812 
2416 C       14.2695    15.9502    -0.7134 C.3   463 CCL4   0.3246 
2417 CL      15.3399    17.1185    -1.4964 Cl    463 CCL4  -0.0812 
2418 CL      12.5991    16.4232    -1.0613 Cl    463 CCL4  -0.0812 
2419 CL      14.4342    14.3280    -1.5295 Cl    463 CCL4  -0.0812 
2420 CL       7.4741    17.3904     1.3805 Cl    464 CCL4  -0.0812 
2421 C        8.1764    16.3926     0.0246 C.3   464 CCL4   0.3246 
2422 CL       9.5601    15.5566     0.6989 Cl    464 CCL4  -0.0812 
2423 CL       8.7312    17.5697    -1.1456 Cl    464 CCL4  -0.0812 
2424 CL       7.0600    15.2247    -0.5867 Cl    464 CCL4  -0.0812 
2425 CL      15.5494    17.7063    19.6769 Cl    465 CCL4  -0.0812 
2426 C       15.1633    16.2512    20.7249 C.3   465 CCL4   0.3246 
2427 CL      13.4598    16.2765    21.3354 Cl    465 CCL4  -0.0812 
2428 CL      16.2897    16.1066    22.1235 Cl    465 CCL4  -0.0812 
2429 CL      15.5466    14.8477    19.6959 Cl    465 CCL4  -0.0812 
2430 CL      13.4005    10.6372   -17.4067 Cl    466 CCL4  -0.0812 
2431 C       12.3864    11.8765   -16.6828 C.3   466 CCL4   0.3246 
2432 CL      12.7157    13.4016   -17.5264 Cl    466 CCL4  -0.0812 
2433 CL      13.0073    12.1205   -14.9647 Cl    466 CCL4  -0.0812 
2434 CL      10.7109    11.3500   -16.7101 Cl    466 CCL4  -0.0812 
2435 CL      12.0127    10.1087    -6.0223 Cl    467 CCL4  -0.0812 
2436 C       12.4850     8.6428    -7.0121 C.3   467 CCL4   0.3246 
2437 CL      10.9409     8.1261    -7.7649 Cl    467 CCL4  -0.0812 
2438 CL      13.2625     7.3226    -6.0331 Cl    467 CCL4  -0.0812 
2439 CL      13.5643     9.2278    -8.2693 Cl    467 CCL4  -0.0812 
2440 CL       7.8628     7.2836    -3.7392 Cl    468 CCL4  -0.0812 
2441 C        8.6299     5.7040    -4.1631 C.3   468 CCL4   0.3246 
2442 CL       7.2222     4.6576    -4.5099 Cl    468 CCL4  -0.0812 
2443 CL       9.4602     5.2198    -2.6823 Cl    468 CCL4  -0.0812 
2444 CL       9.7898     5.6381    -5.4840 Cl    468 CCL4  -0.0812 
2445 CL      16.6947    16.9901   -11.0444 Cl    469 CCL4  -0.0812 
2446 C       15.1207    17.2677   -10.1749 C.3   469 CCL4   0.3246 
2447 CL      15.3940    18.2158    -8.7425 Cl    469 CCL4  -0.0812 
2448 CL      14.4194    15.6505    -9.7294 Cl    469 CCL4  -0.0812 
2449 CL      14.0909    18.1498   -11.2266 Cl    469 CCL4  -0.0812 
2450 CL      12.7882    13.4160    -4.2976 Cl    470 CCL4  -0.0812 
2451 C       14.2732    13.7033    -5.2408 C.3   470 CCL4   0.3246 
2452 CL      13.9022    13.3691    -6.9262 Cl    470 CCL4  -0.0812 
2453 CL      15.4757    12.6364    -4.5911 Cl    470 CCL4  -0.0812 
2454 CL      14.6993    15.4706    -5.1349 Cl    470 CCL4  -0.0812 
2455 CL      11.0902    13.1385   -11.0227 Cl    471 CCL4  -0.0812 
2456 C        9.9950    12.1762   -10.0877 C.3   471 CCL4   0.3246 
2457 CL       8.3086    12.4688   -10.5532 Cl    471 CCL4  -0.0812 
2458 CL      10.0716    12.7371    -8.4530 Cl    471 CCL4  -0.0812 
2459 CL      10.4126    10.4634   -10.1980 Cl    471 CCL4  -0.0812 
2460 CL      14.2834     7.7571    -2.6845 Cl    472 CCL4  -0.0812 
2461 C       13.0015     8.8456    -2.0557 C.3   472 CCL4   0.3246 
2462 CL      12.7745     8.3116    -0.3455 Cl    472 CCL4  -0.0812 
2463 CL      11.5537     8.7211    -3.0248 Cl    472 CCL4  -0.0812 
2464 CL      13.5263    10.5487    -2.0815 Cl    472 CCL4  -0.0812 
2465 CL       6.5006     9.1946     0.7836 Cl    473 CCL4  -0.0812 
2466 C        8.1466     9.6469     0.9092 C.3   473 CCL4   0.3246 
2467 CL       8.4505    11.3982     1.1315 Cl    473 CCL4  -0.0812 
2468 CL       8.9916     9.1120    -0.5668 Cl    473 CCL4  -0.0812 
2469 CL       8.9019     8.7377     2.1566 Cl    473 CCL4  -0.0812 
2470 CL      13.1447    19.0751    -3.6680 Cl    474 CCL4  -0.0812 
2471 C       11.6207    18.6655    -4.4473 C.3   474 CCL4   0.3246 
2472 CL      10.2273    19.4103    -3.7248 Cl    474 CCL4  -0.0812 
2473 CL      11.4623    16.8840    -4.4720 Cl    474 CCL4  -0.0812 
2474 CL      11.7036    19.1654    -6.1078 Cl    474 CCL4  -0.0812 
2475 CL       9.1014    17.9003    -7.6763 Cl    475 CCL4  -0.0812 
2476 C       10.1852    17.3022    -8.9453 C.3   475 CCL4   0.3246 
2477 CL       9.2388    15.9706    -9.6494 Cl    475 CCL4  -0.0812 
2478 CL      11.5172    16.4503    -8.1319 Cl    475 CCL4  -0.0812 
2479 CL      10.6929    18.5536   -10.1131 Cl    475 CCL4  -0.0812 
2480 CL       9.4398    11.8200    -4.7558 Cl    476 CCL4  -0.0812 
2481 C        9.0117    12.8215    -3.3817 C.3   476 CCL4   0.3246 
2482 CL       8.6398    14.4994    -3.8137 Cl    476 CCL4  -0.0812 
2483 CL       7.4462    12.2511    -2.6771 Cl    476 CCL4  -0.0812 
2484 CL      10.2545    12.7097    -2.1030 Cl    476 CCL4  -0.0812 
2485 CL       7.8654    18.1840     8.6838 Cl    477 CCL4  -0.0812 
2486 C        7.6311    19.8255     9.3480 C.3   477 CCL4   0.3246 
2487 CL       6.1363    20.4524     8.6398 Cl    477 CCL4  -0.0812 
2488 CL       9.0541    20.8820     9.1255 Cl    477 CCL4  -0.0812 
2489 CL       7.4194    19.6147    11.1114 Cl    477 CCL4  -0.0812 
2490 CL      17.4070     7.0603    11.3307 Cl    478 CCL4  -0.0812 
2491 C       16.8092     8.0781     9.9355 C.3   478 CCL4   0.3246 
2492 CL      15.5707     7.2994     8.8529 Cl    478 CCL4  -0.0812 
2493 CL      18.1868     8.6389     8.9364 Cl    478 CCL4  -0.0812 
2494 CL      16.0784     9.6169    10.6760 Cl    478 CCL4  -0.0812 
2495 CL      11.6754    18.5364    10.5775 Cl    479 CCL4  -0.0812 
2496 C       11.9616    16.7814    10.7047 C.3   479 CCL4   0.3246 
2497 CL      11.7169    16.2662    12.3955 Cl    479 CCL4  -0.0812 
2498 CL      13.5008    16.1820    10.1412 Cl    479 CCL4  -0.0812 
2499 CL      10.7076    15.9682     9.7368 Cl    479 CCL4  -0.0812 
2500 CL      17.1212    15.6187    10.4102 Cl    480 CCL4  -0.0812 
2501 C       16.6127    13.8914    10.6264 C.3   480 CCL4   0.3246 
2502 CL      18.0397    12.9480    11.0906 Cl    480 CCL4  -0.0812 
2503 CL      15.9515    13.2087     9.1740 Cl    480 CCL4  -0.0812 
2504 CL      15.5170    13.7760    12.0773 Cl    480 CCL4  -0.0812 
2505 CL      12.0155     7.7411     6.5137 Cl    481 CCL4  -0.0812 
2506 C       10.2341     7.2151     6.6629 C.3   481 CCL4   0.3246 
2507 CL      10.2188     5.5220     6.8692 Cl    481 CCL4  -0.0812 
2508 CL       9.2648     7.6469     5.1752 Cl    481 CCL4  -0.0812 
2509 CL       9.5727     8.1450     8.0858 Cl    481 CCL4  -0.0812 
2510 CL      16.2048     7.6521    14.4174 Cl    482 CCL4  -0.0812 
2511 C       15.7039     6.0162    14.7728 C.3   482 CCL4   0.3246 
2512 CL      16.9365     4.8857    14.2297 Cl    482 CCL4  -0.0812 
2513 CL      14.2665     5.6070    13.8186 Cl    482 CCL4  -0.0812 
2514 CL      15.3744     5.8534    16.4593 Cl    482 CCL4  -0.0812 
2515 CL      12.5277     8.3754    10.3556 Cl    483 CCL4  -0.0812 
2516 C       11.7838     8.8661    11.9068 C.3   483 CCL4   0.3246 
2517 CL      13.0077     9.3547    12.9796 Cl    483 CCL4  -0.0812 
2518 CL      10.9068     7.4525    12.5228 Cl    483 CCL4  -0.0812 
2519 CL      10.5932    10.2087    11.6020 Cl    483 CCL4  -0.0812 
2520 CL      11.9508    11.3170     1.4437 Cl    484 CCL4  -0.0812 
2521 C       12.4225    10.7237     3.0541 C.3   484 CCL4   0.3246 
2522 CL      11.2424    11.3063     4.2132 Cl    484 CCL4  -0.0812 
2523 CL      13.9595    11.4670     3.5064 Cl    484 CCL4  -0.0812 
2524 CL      12.6274     8.9716     2.9797 Cl    484 CCL4  -0.0812 
2525 CL      15.5494    17.7063     4.6769 Cl    485 CCL4  -0.0812 
2526 C       15.1633    16.2512     5.7249 C.3   485 CCL4   0.3246 
2527 CL      13.4598    16.2765     6.3354 Cl    485 CCL4  -0.0812 
2528 CL      16.2897    16.1066     7.1235 Cl    485 CCL4  -0.0812 
2529 CL      15.5466    14.8477     4.6959 Cl    485 CCL4  -0.0812 
2530 CL       8.3802    14.2317     3.8638 Cl    486 CCL4  -0.0812 
2531 C        9.6255    15.1654     4.6997 C.3   486 CCL4   0.3246 
2532 CL       9.4355    14.7102     6.4970 Cl    486 CCL4  -0.0812 
2533 CL       9.2515    16.9598     4.8039 Cl    486 CCL4  -0.0812 
2534 CL      11.1366    14.6592     4.1099 Cl    486 CCL4  -0.0812 
2535 CL      13.4005    10.6372     7.5933 Cl    487 CCL4  -0.0812 
2536 C       12.3864    11.8765     8.3172 C.3   487 CCL4   0.3246 
2537 CL      12.7157    13.4016     7.4736 Cl    487 CCL4  -0.0812 
2538 CL      13.0073    12.1205    10.0353 Cl    487 CCL4  -0.0812 
2539 CL      10.7109    11.3500     8.2899 Cl    487 CCL4  -0.0812 
2540 CL      12.0127    10.1087    18.9777 Cl    488 CCL4  -0.0812 
2541 C       12.4850     8.6428    17.9879 C.3   488 CCL4   0.3246 
2542 CL      10.9409     8.1261    17.2351 Cl    488 CCL4  -0.0812 
2543 CL      13.2625     7.3226    18.9669 Cl    488 CCL4  -0.0812 
2544 CL      13.5643     9.2278    16.7307 Cl    488 CCL4  -0.0812 
2545 CL      16.6947    16.9901    13.9556 Cl    489 CCL4  -0.0812 
2546 C       15.1207    17.2677    14.8251 C.3   489 CCL4   0.3246 
2547 CL      15.3940    18.2158    16.2575 Cl    489 CCL4  -0.0812 
2548 CL      14.4194    15.6505    15.2706 Cl    489 CCL4  -0.0812 
2549 CL      14.0909    18.1498    13.7734 Cl    489 CCL4  -0.0812 
2550 CL      11.0902    13.1385    13.9773 Cl    490 CCL4  -0.0812 
2551 C        9.9950    12.1762    14.9123 C.3   490 CCL4   0.3246 
2552 CL       8.3086    12.4688    14.4468 Cl    490 CCL4  -0.0812 
2553 CL      10.0716    12.7371    16.5470 Cl    490 CCL4  -0.0812 
2554 CL      10.4126    10.4634    14.8020 Cl    490 CCL4  -0.0812 
2555 CL      12.0223    17.5854     2.6953 Cl    491 CCL4  -0.0812 
2556 C       12.5345    19.0373     1.9336 C.3   491 CCL4   0.3246 
2557 CL      12.3342    20.3808     3.0152 Cl    491 CCL4  -0.0812 
2558 CL      11.6891    19.4472     0.4594 Cl    491 CCL4  -0.0812 
2559 CL      14.3210    19.0023     1.6181 Cl    491 CCL4  -0.0812 
2560 CL      11.8199    19.5430     6.9387 Cl    492 CCL4  -0.0812 
2561 C       12.0806    21.2555     6.8436 C.3   492 CCL4   0.3246 
2562 CL      10.9587    22.1103     5.8794 Cl    492 CCL4  -0.0812 
2563 CL      13.8041    21.4532     6.0723 Cl    492 CCL4  -0.0812 
2564 CL      12.3195    21.9374     8.5022 Cl    492 CCL4  -0.0812 
2565 CL       9.1014    17.9003    17.3237 Cl    493 CCL4  -0.0812 
2566 C       10.1852    17.3022    16.0547 C.3   493 CCL4   0.3246 
2567 CL       9.2388    15.9706    15.3506 Cl    493 CCL4  -0.0812 
2568 CL      11.5172    16.4503    16.8681 Cl    493 CCL4  -0.0812 
2569 CL      10.6929    18.5536    14.8869 Cl    493 CCL4  -0.0812 
@<TRIPOS>BOND
   1    1    2  1   
   2    1    3  ar  
   3    1   27  ar  
   4    3    4  ar  
   5    3   28  1   
   6    4    5  ar  
   7    4   29  1   
   8    5    6  1   
   9    5   26  ar  
  10    6    7  1   
  11    6    8  1   
  12    6   66  1   
  13    8    9  ar  
  14    8   25  ar  
  15    9   10  ar  
  16    9   30  1   
  17   10   11  ar  
  18   10   31  1   
  19   11   12  1   
  20   11   24  ar  
  21   12   13  1   
  22   13   14  1   
  23   13   32  1   
  24   13   33  1   
  25   14   15  1   
  26   14   34  1   
  27   14   35  1   
  28   15   16  1   
  29   15   36  1   
  30   15   37  1   
  31   16   17  1   
  32   16   38  1   
  33   16   39  1   
  34   17   18  1   
  35   17   40  1   
  36   17   41  1   
  37   18   19  1   
  38   18   42  1   
  39   18   43  1   
  40   19   20  1   
  41   19   44  1   
  42   19   45  1   
  43   20   21  1   
  44   20   46  1   
  45   20   47  1   
  46   21   22  1   
  47   21   48  1   
  48   21   49  1   
  49   22   23  1   
  50   22   50  1   
  51   22   51  1   
  52   23   52  1   
  53   24   25  ar  
  54   24   53  1   
  55   25   54  1   
  56   26   27  ar  
  57   26   55  1   
  58   27   56  1   
  59   57   58  1   
  60   57  107  2   
  61   57  108  1   
  62   58   60  1   
  63   58   63  1   
  64   58   64  1   
  65   59   61  1   
  66   59   62  1   
  67   59   91  1   
  68   59   93  1   
  69   64   65  1   
  70   64   66  1   
  71   64  106  1   
  72   66   67  1   
  73   66   68  1   
  74   68   69  1   
  75   68  104  1   
  76   68  105  1   
  77   69   70  1   
  78   69   71  1   
  79   69  103  1   
  80   71   72  1   
  81   71   73  1   
  82   71   74  1   
  83   74   75  1   
  84   74   76  1   
  85   74  102  1   
  86   76   77  1   
  87   76   78  2   
  88   78   79  1   
  89   78   80  1   
  90   80   81  1   
  91   80  100  1   
  92   80  101  1   
  93   81   82  1   
  94   81   83  1   
  95   81   99  1   
  96   83   84  1   
  97   83   85  1   
  98   83   86  1   
  99   86   87  1   
 100   86   88  1   
 101   86   98  1   
 102   88   89  1   
 103   88   90  1   
 104   88   91  1   
 105   91   92  1   
 106   91   97  1   
 107   93   94  1   
 108   93   95  1   
 109   93   96  1   
 110  108  109  1   
 111  110  111  1   
 112  111  112  1   
 113  111  113  1   
 114  111  114  1   
 115  115  116  1   
 116  116  117  1   
 117  116  118  1   
 118  116  119  1   
 119  120  121  1   
 120  121  122  1   
 121  121  123  1   
 122  121  124  1   
 123  125  126  1   
 124  126  127  1   
 125  126  128  1   
 126  126  129  1   
 127  130  131  1   
 128  131  132  1   
 129  131  133  1   
 130  131  134  1   
 131  135  136  1   
 132  136  137  1   
 133  136  138  1   
 134  136  139  1   
 135  140  141  1   
 136  141  142  1   
 137  141  143  1   
 138  141  144  1   
 139  145  146  1   
 140  146  147  1   
 141  146  148  1   
 142  146  149  1   
 143  150  151  1   
 144  151  152  1   
 145  151  153  1   
 146  151  154  1   
 147  155  156  1   
 148  156  157  1   
 149  156  158  1   
 150  156  159  1   
 151  160  161  1   
 152  161  162  1   
 153  161  163  1   
 154  161  164  1   
 155  165  166  1   
 156  166  167  1   
 157  166  168  1   
 158  166  169  1   
 159  170  171  1   
 160  171  172  1   
 161  171  173  1   
 162  171  174  1   
 163  175  176  1   
 164  176  177  1   
 165  176  178  1   
 166  176  179  1   
 167  180  181  1   
 168  181  182  1   
 169  181  183  1   
 170  181  184  1   
 171  185  186  1   
 172  186  187  1   
 173  186  188  1   
 174  186  189  1   
 175  190  191  1   
 176  191  192  1   
 177  191  193  1   
 178  191  194  1   
 179  195  196  1   
 180  196  197  1   
 181  196  198  1   
 182  196  199  1   
 183  200  201  1   
 184  201  202  1   
 185  201  203  1   
 186  201  204  1   
 187  205  206  1   
 188  206  207  1   
 189  206  208  1   
 190  206  209  1   
 191  210  211  1   
 192  211  212  1   
 193  211  213  1   
 194  211  214  1   
 195  215  216  1   
 196  216  217  1   
 197  216  218  1   
 198  216  219  1   
 199  220  221  1   
 200  221  222  1   
 201  221  223  1   
 202  221  224  1   
 203  225  226  1   
 204  226  227  1   
 205  226  228  1   
 206  226  229  1   
 207  230  231  1   
 208  231  232  1   
 209  231  233  1   
 210  231  234  1   
 211  235  236  1   
 212  236  237  1   
 213  236  238  1   
 214  236  239  1   
 215  240  241  1   
 216  241  242  1   
 217  241  243  1   
 218  241  244  1   
 219  245  246  1   
 220  246  247  1   
 221  246  248  1   
 222  246  249  1   
 223  250  251  1   
 224  251  252  1   
 225  251  253  1   
 226  251  254  1   
 227  255  256  1   
 228  256  257  1   
 229  256  258  1   
 230  256  259  1   
 231  260  261  1   
 232  261  262  1   
 233  261  263  1   
 234  261  264  1   
 235  265  266  1   
 236  266  267  1   
 237  266  268  1   
 238  266  269  1   
 239  270  271  1   
 240  271  272  1   
 241  271  273  1   
 242  271  274  1   
 243  275  276  1   
 244  276  277  1   
 245  276  278  1   
 246  276  279  1   
 247  280  281  1   
 248  281  282  1   
 249  281  283  1   
 250  281  284  1   
 251  285  286  1   
 252  286  287  1   
 253  286  288  1   
 254  286  289  1   
 255  290  291  1   
 256  291  292  1   
 257  291  293  1   
 258  291  294  1   
 259  295  296  1   
 260  296  297  1   
 261  296  298  1   
 262  296  299  1   
 263  300  301  1   
 264  301  302  1   
 265  301  303  1   
 266  301  304  1   
 267  305  306  1   
 268  306  307  1   
 269  306  308  1   
 270  306  309  1   
 271  310  311  1   
 272  311  312  1   
 273  311  313  1   
 274  311  314  1   
 275  315  316  1   
 276  316  317  1   
 277  316  318  1   
 278  316  319  1   
 279  320  321  1   
 280  321  322  1   
 281  321  323  1   
 282  321  324  1   
 283  325  326  1   
 284  326  327  1   
 285  326  328  1   
 286  326  329  1   
 287  330  331  1   
 288  331  332  1   
 289  331  333  1   
 290  331  334  1   
 291  335  336  1   
 292  336  337  1   
 293  336  338  1   
 294  336  339  1   
 295  340  341  1   
 296  341  342  1   
 297  341  343  1   
 298  341  344  1   
 299  345  346  1   
 300  346  347  1   
 301  346  348  1   
 302  346  349  1   
 303  350  351  1   
 304  351  352  1   
 305  351  353  1   
 306  351  354  1   
 307  355  356  1   
 308  356  357  1   
 309  356  358  1   
 310  356  359  1   
 311  360  361  1   
 312  361  362  1   
 313  361  363  1   
 314  361  364  1   
 315  365  366  1   
 316  366  367  1   
 317  366  368  1   
 318  366  369  1   
 319  370  371  1   
 320  371  372  1   
 321  371  373  1   
 322  371  374  1   
 323  375  376  1   
 324  376  377  1   
 325  376  378  1   
 326  376  379  1   
 327  380  381  1   
 328  381  382  1   
 329  381  383  1   
 330  381  384  1   
 331  385  386  1   
 332  386  387  1   
 333  386  388  1   
 334  386  389  1   
 335  390  391  1   
 336  391  392  1   
 337  391  393  1   
 338  391  394  1   
 339  395  396  1   
 340  396  397  1   
 341  396  398  1   
 342  396  399  1   
 343  400  401  1   
 344  401  402  1   
 345  401  403  1   
 346  401  404  1   
 347  405  406  1   
 348  406  407  1   
 349  406  408  1   
 350  406  409  1   
 351  410  411  1   
 352  411  412  1   
 353  411  413  1   
 354  411  414  1   
 355  415  416  1   
 356  416  417  1   
 357  416  418  1   
 358  416  419  1   
 359  420  421  1   
 360  421  422  1   
 361  421  423  1   
 362  421  424  1   
 363  425  426  1   
 364  426  427  1   
 365  426  428  1   
 366  426  429  1   
 367  430  431  1   
 368  431  432  1   
 369  431  433  1   
 370  431  434  1   
 371  435  436  1   
 372  436  437  1   
 373  436  438  1   
 374  436  439  1   
 375  440  441  1   
 376  441  442  1   
 377  441  443  1   
 378  441  444  1   
 379  445  446  1   
 380  446  447  1   
 381  446  448  1   
 382  446  449  1   
 383  450  451  1   
 384  451  452  1   
 385  451  453  1   
 386  451  454  1   
 387  455  456  1   
 388  456  457  1   
 389  456  458  1   
 390  456  459  1   
 391  460  461  1   
 392  461  462  1   
 393  461  463  1   
 394  461  464  1   
 395  465  466  1   
 396  466  467  1   
 397  466  468  1   
 398  466  469  1   
 399  470  471  1   
 400  471  472  1   
 401  471  473  1   
 402  471  474  1   
 403  475  476  1   
 404  476  477  1   
 405  476  478  1   
 406  476  479  1   
 407  480  481  1   
 408  481  482  1   
 409  481  483  1   
 410  481  484  1   
 411  485  486  1   
 412  486  487  1   
 413  486  488  1   
 414  486  489  1   
 415  490  491  1   
 416  491  492  1   
 417  491  493  1   
 418  491  494  1   
 419  495  496  1   
 420  496  497  1   
 421  496  498  1   
 422  496  499  1   
 423  500  501  1   
 424  501  502  1   
 425  501  503  1   
 426  501  504  1   
 427  505  506  1   
 428  506  507  1   
 429  506  508  1   
 430  506  509  1   
 431  510  511  1   
 432  511  512  1   
 433  511  513  1   
 434  511  514  1   
 435  515  516  1   
 436  516  517  1   
 437  516  518  1   
 438  516  519  1   
 439  520  521  1   
 440  521  522  1   
 441  521  523  1   
 442  521  524  1   
 443  525  526  1   
 444  526  527  1   
 445  526  528  1   
 446  526  529  1   
 447  530  531  1   
 448  531  532  1   
 449  531  533  1   
 450  531  534  1   
 451  535  536  1   
 452  536  537  1   
 453  536  538  1   
 454  536  539  1   
 455  540  541  1   
 456  541  542  1   
 457  541  543  1   
 458  541  544  1   
 459  545  546  1   
 460  546  547  1   
 461  546  548  1   
 462  546  549  1   
 463  550  551  1   
 464  551  552  1   
 465  551  553  1   
 466  551  554  1   
 467  555  556  1   
 468  556  557  1   
 469  556  558  1   
 470  556  559  1   
 471  560  561  1   
 472  561  562  1   
 473  561  563  1   
 474  561  564  1   
 475  565  566  1   
 476  566  567  1   
 477  566  568  1   
 478  566  569  1   
 479  570  571  1   
 480  571  572  1   
 481  571  573  1   
 482  571  574  1   
 483  575  576  1   
 484  576  577  1   
 485  576  578  1   
 486  576  579  1   
 487  580  581  1   
 488  581  582  1   
 489  581  583  1   
 490  581  584  1   
 491  585  586  1   
 492  586  587  1   
 493  586  588  1   
 494  586  589  1   
 495  590  591  1   
 496  591  592  1   
 497  591  593  1   
 498  591  594  1   
 499  595  596  1   
 500  596  597  1   
 501  596  598  1   
 502  596  599  1   
 503  600  601  1   
 504  601  602  1   
 505  601  603  1   
 506  601  604  1   
 507  605  606  1   
 508  606  607  1   
 509  606  608  1   
 510  606  609  1   
 511  610  611  1   
 512  611  612  1   
 513  611  613  1   
 514  611  614  1   
 515  615  616  1   
 516  616  617  1   
 517  616  618  1   
 518  616  619  1   
 519  620  621  1   
 520  621  622  1   
 521  621  623  1   
 522  621  624  1   
 523  625  626  1   
 524  626  627  1   
 525  626  628  1   
 526  626  629  1   
 527  630  631  1   
 528  631  632  1   
 529  631  633  1   
 530  631  634  1   
 531  635  636  1   
 532  636  637  1   
 533  636  638  1   
 534  636  639  1   
 535  640  641  1   
 536  641  642  1   
 537  641  643  1   
 538  641  644  1   
 539  645  646  1   
 540  646  647  1   
 541  646  648  1   
 542  646  649  1   
 543  650  651  1   
 544  651  652  1   
 545  651  653  1   
 546  651  654  1   
 547  655  656  1   
 548  656  657  1   
 549  656  658  1   
 550  656  659  1   
 551  660  661  1   
 552  661  662  1   
 553  661  663  1   
 554  661  664  1   
 555  665  666  1   
 556  666  667  1   
 557  666  668  1   
 558  666  669  1   
 559  670  671  1   
 560  671  672  1   
 561  671  673  1   
 562  671  674  1   
 563  675  676  1   
 564  676  677  1   
 565  676  678  1   
 566  676  679  1   
 567  680  681  1   
 568  681  682  1   
 569  681  683  1   
 570  681  684  1   
 571  685  686  1   
 572  686  687  1   
 573  686  688  1   
 574  686  689  1   
 575  690  691  1   
 576  691  692  1   
 577  691  693  1   
 578  691  694  1   
 579  695  696  1   
 580  696  697  1   
 581  696  698  1   
 582  696  699  1   
 583  700  701  1   
 584  701  702  1   
 585  701  703  1   
 586  701  704  1   
 587  705  706  1   
 588  706  707  1   
 589  706  708  1   
 590  706  709  1   
 591  710  711  1   
 592  711  712  1   
 593  711  713  1   
 594  711  714  1   
 595  715  716  1   
 596  716  717  1   
 597  716  718  1   
 598  716  719  1   
 599  720  721  1   
 600  721  722  1   
 601  721  723  1   
 602  721  724  1   
 603  725  726  1   
 604  726  727  1   
 605  726  728  1   
 606  726  729  1   
 607  730  731  1   
 608  731  732  1   
 609  731  733  1   
 610  731  734  1   
 611  735  736  1   
 612  736  737  1   
 613  736  738  1   
 614  736  739  1   
 615  740  741  1   
 616  741  742  1   
 617  741  743  1   
 618  741  744  1   
 619  745  746  1   
 620  746  747  1   
 621  746  748  1   
 622  746  749  1   
 623  750  751  1   
 624  751  752  1   
 625  751  753  1   
 626  751  754  1   
 627  755  756  1   
 628  756  757  1   
 629  756  758  1   
 630  756  759  1   
 631  760  761  1   
 632  761  762  1   
 633  761  763  1   
 634  761  764  1   
 635  765  766  1   
 636  766  767  1   
 637  766  768  1   
 638  766  769  1   
 639  770  771  1   
 640  771  772  1   
 641  771  773  1   
 642  771  774  1   
 643  775  776  1   
 644  776  777  1   
 645  776  778  1   
 646  776  779  1   
 647  780  781  1   
 648  781  782  1   
 649  781  783  1   
 650  781  784  1   
 651  785  786  1   
 652  786  787  1   
 653  786  788  1   
 654  786  789  1   
 655  790  791  1   
 656  791  792  1   
 657  791  793  1   
 658  791  794  1   
 659  795  796  1   
 660  796  797  1   
 661  796  798  1   
 662  796  799  1   
 663  800  801  1   
 664  801  802  1   
 665  801  803  1   
 666  801  804  1   
 667  805  806  1   
 668  806  807  1   
 669  806  808  1   
 670  806  809  1   
 671  810  811  1   
 672  811  812  1   
 673  811  813  1   
 674  811  814  1   
 675  815  816  1   
 676  816  817  1   
 677  816  818  1   
 678  816  819  1   
 679  820  821  1   
 680  821  822  1   
 681  821  823  1   
 682  821  824  1   
 683  825  826  1   
 684  826  827  1   
 685  826  828  1   
 686  826  829  1   
 687  830  831  1   
 688  831  832  1   
 689  831  833  1   
 690  831  834  1   
 691  835  836  1   
 692  836  837  1   
 693  836  838  1   
 694  836  839  1   
 695  840  841  1   
 696  841  842  1   
 697  841  843  1   
 698  841  844  1   
 699  845  846  1   
 700  846  847  1   
 701  846  848  1   
 702  846  849  1   
 703  850  851  1   
 704  851  852  1   
 705  851  853  1   
 706  851  854  1   
 707  855  856  1   
 708  856  857  1   
 709  856  858  1   
 710  856  859  1   
 711  860  861  1   
 712  861  862  1   
 713  861  863  1   
 714  861  864  1   
 715  865  866  1   
 716  866  867  1   
 717  866  868  1   
 718  866  869  1   
 719  870  871  1   
 720  871  872  1   
 721  871  873  1   
 722  871  874  1   
 723  875  876  1   
 724  876  877  1   
 725  876  878  1   
 726  876  879  1   
 727  880  881  1   
 728  881  882  1   
 729  881  883  1   
 730  881  884  1   
 731  885  886  1   
 732  886  887  1   
 733  886  888  1   
 734  886  889  1   
 735  890  891  1   
 736  891  892  1   
 737  891  893  1   
 738  891  894  1   
 739  895  896  1   
 740  896  897  1   
 741  896  898  1   
 742  896  899  1   
 743  900  901  1   
 744  901  902  1   
 745  901  903  1   
 746  901  904  1   
 747  905  906  1   
 748  906  907  1   
 749  906  908  1   
 750  906  909  1   
 751  910  911  1   
 752  911  912  1   
 753  911  913  1   
 754  911  914  1   
 755  915  916  1   
 756  916  917  1   
 757  916  918  1   
 758  916  919  1   
 759  920  921  1   
 760  921  922  1   
 761  921  923  1   
 762  921  924  1   
 763  925  926  1   
 764  926  927  1   
 765  926  928  1   
 766  926  929  1   
 767  930  931  1   
 768  931  932  1   
 769  931  933  1   
 770  931  934  1   
 771  935  936  1   
 772  936  937  1   
 773  936  938  1   
 774  936  939  1   
 775  940  941  1   
 776  941  942  1   
 777  941  943  1   
 778  941  944  1   
 779  945  946  1   
 780  946  947  1   
 781  946  948  1   
 782  946  949  1   
 783  950  951  1   
 784  951  952  1   
 785  951  953  1   
 786  951  954  1   
 787  955  956  1   
 788  956  957  1   
 789  956  958  1   
 790  956  959  1   
 791  960  961  1   
 792  961  962  1   
 793  961  963  1   
 794  961  964  1   
 795  965  966  1   
 796  966  967  1   
 797  966  968  1   
 798  966  969  1   
 799  970  971  1   
 800  971  972  1   
 801  971  973  1   
 802  971  974  1   
 803  975  976  1   
 804  976  977  1   
 805  976  978  1   
 806  976  979  1   
 807  980  981  1   
 808  981  982  1   
 809  981  983  1   
 810  981  984  1   
 811  985  986  1   
 812  986  987  1   
 813  986  988  1   
 814  986  989  1   
 815  990  991  1   
 816  991  992  1   
 817  991  993  1   
 818  991  994  1   
 819  995  996  1   
 820  996  997  1   
 821  996  998  1   
 822  996  999  1   
 823 1000 1001  1   
 824 1001 1002  1   
 825 1001 1003  1   
 826 1001 1004  1   
 827 1005 1006  1   
 828 1006 1007  1   
 829 1006 1008  1   
 830 1006 1009  1   
 831 1010 1011  1   
 832 1011 1012  1   
 833 1011 1013  1   
 834 1011 1014  1   
 835 1015 1016  1   
 836 1016 1017  1   
 837 1016 1018  1   
 838 1016 1019  1   
 839 1020 1021  1   
 840 1021 1022  1   
 841 1021 1023  1   
 842 1021 1024  1   
 843 1025 1026  1   
 844 1026 1027  1   
 845 1026 1028  1   
 846 1026 1029  1   
 847 1030 1031  1   
 848 1031 1032  1   
 849 1031 1033  1   
 850 1031 1034  1   
 851 1035 1036  1   
 852 1036 1037  1   
 853 1036 1038  1   
 854 1036 1039  1   
 855 1040 1041  1   
 856 1041 1042  1   
 857 1041 1043  1   
 858 1041 1044  1   
 859 1045 1046  1   
 860 1046 1047  1   
 861 1046 1048  1   
 862 1046 1049  1   
 863 1050 1051  1   
 864 1051 1052  1   
 865 1051 1053  1   
 866 1051 1054  1   
 867 1055 1056  1   
 868 1056 1057  1   
 869 1056 1058  1   
 870 1056 1059  1   
 871 1060 1061  1   
 872 1061 1062  1   
 873 1061 1063  1   
 874 1061 1064  1   
 875 1065 1066  1   
 876 1066 1067  1   
 877 1066 1068  1   
 878 1066 1069  1   
 879 1070 1071  1   
 880 1071 1072  1   
 881 1071 1073  1   
 882 1071 1074  1   
 883 1075 1076  1   
 884 1076 1077  1   
 885 1076 1078  1   
 886 1076 1079  1   
 887 1080 1081  1   
 888 1081 1082  1   
 889 1081 1083  1   
 890 1081 1084  1   
 891 1085 1086  1   
 892 1086 1087  1   
 893 1086 1088  1   
 894 1086 1089  1   
 895 1090 1091  1   
 896 1091 1092  1   
 897 1091 1093  1   
 898 1091 1094  1   
 899 1095 1096  1   
 900 1096 1097  1   
 901 1096 1098  1   
 902 1096 1099  1   
 903 1100 1101  1   
 904 1101 1102  1   
 905 1101 1103  1   
 906 1101 1104  1   
 907 1105 1106  1   
 908 1106 1107  1   
 909 1106 1108  1   
 910 1106 1109  1   
 911 1110 1111  1   
 912 1111 1112  1   
 913 1111 1113  1   
 914 1111 1114  1   
 915 1115 1116  1   
 916 1116 1117  1   
 917 1116 1118  1   
 918 1116 1119  1   
 919 1120 1121  1   
 920 1121 1122  1   
 921 1121 1123  1   
 922 1121 1124  1   
 923 1125 1126  1   
 924 1126 1127  1   
 925 1126 1128  1   
 926 1126 1129  1   
 927 1130 1131  1   
 928 1131 1132  1   
 929 1131 1133  1   
 930 1131 1134  1   
 931 1135 1136  1   
 932 1136 1137  1   
 933 1136 1138  1   
 934 1136 1139  1   
 935 1140 1141  1   
 936 1141 1142  1   
 937 1141 1143  1   
 938 1141 1144  1   
 939 1145 1146  1   
 940 1146 1147  1   
 941 1146 1148  1   
 942 1146 1149  1   
 943 1150 1151  1   
 944 1151 1152  1   
 945 1151 1153  1   
 946 1151 1154  1   
 947 1155 1156  1   
 948 1156 1157  1   
 949 1156 1158  1   
 950 1156 1159  1   
 951 1160 1161  1   
 952 1161 1162  1   
 953 1161 1163  1   
 954 1161 1164  1   
 955 1165 1166  1   
 956 1166 1167  1   
 957 1166 1168  1   
 958 1166 1169  1   
 959 1170 1171  1   
 960 1171 1172  1   
 961 1171 1173  1   
 962 1171 1174  1   
 963 1175 1176  1   
 964 1176 1177  1   
 965 1176 1178  1   
 966 1176 1179  1   
 967 1180 1181  1   
 968 1181 1182  1   
 969 1181 1183  1   
 970 1181 1184  1   
 971 1185 1186  1   
 972 1186 1187  1   
 973 1186 1188  1   
 974 1186 1189  1   
 975 1190 1191  1   
 976 1191 1192  1   
 977 1191 1193  1   
 978 1191 1194  1   
 979 1195 1196  1   
 980 1196 1197  1   
 981 1196 1198  1   
 982 1196 1199  1   
 983 1200 1201  1   
 984 1201 1202  1   
 985 1201 1203  1   
 986 1201 1204  1   
 987 1205 1206  1   
 988 1206 1207  1   
 989 1206 1208  1   
 990 1206 1209  1   
 991 1210 1211  1   
 992 1211 1212  1   
 993 1211 1213  1   
 994 1211 1214  1   
 995 1215 1216  1   
 996 1216 1217  1   
 997 1216 1218  1   
 998 1216 1219  1   
 999 1220 1221  1   
1000 1221 1222  1   
1001 1221 1223  1   
1002 1221 1224  1   
1003 1225 1226  1   
1004 1226 1227  1   
1005 1226 1228  1   
1006 1226 1229  1   
1007 1230 1231  1   
1008 1231 1232  1   
1009 1231 1233  1   
1010 1231 1234  1   
1011 1235 1236  1   
1012 1236 1237  1   
1013 1236 1238  1   
1014 1236 1239  1   
1015 1240 1241  1   
1016 1241 1242  1   
1017 1241 1243  1   
1018 1241 1244  1   
1019 1245 1246  1   
1020 1246 1247  1   
1021 1246 1248  1   
1022 1246 1249  1   
1023 1250 1251  1   
1024 1251 1252  1   
1025 1251 1253  1   
1026 1251 1254  1   
1027 1255 1256  1   
1028 1256 1257  1   
1029 1256 1258  1   
1030 1256 1259  1   
1031 1260 1261  1   
1032 1261 1262  1   
1033 1261 1263  1   
1034 1261 1264  1   
1035 1265 1266  1   
1036 1266 1267  1   
1037 1266 1268  1   
1038 1266 1269  1   
1039 1270 1271  1   
1040 1271 1272  1   
1041 1271 1273  1   
1042 1271 1274  1   
1043 1275 1276  1   
1044 1276 1277  1   
1045 1276 1278  1   
1046 1276 1279  1   
1047 1280 1281  1   
1048 1281 1282  1   
1049 1281 1283  1   
1050 1281 1284  1   
1051 1285 1286  1   
1052 1286 1287  1   
1053 1286 1288  1   
1054 1286 1289  1   
1055 1290 1291  1   
1056 1291 1292  1   
1057 1291 1293  1   
1058 1291 1294  1   
1059 1295 1296  1   
1060 1296 1297  1   
1061 1296 1298  1   
1062 1296 1299  1   
1063 1300 1301  1   
1064 1301 1302  1   
1065 1301 1303  1   
1066 1301 1304  1   
1067 1305 1306  1   
1068 1306 1307  1   
1069 1306 1308  1   
1070 1306 1309  1   
1071 1310 1311  1   
1072 1311 1312  1   
1073 1311 1313  1   
1074 1311 1314  1   
1075 1315 1316  1   
1076 1316 1317  1   
1077 1316 1318  1   
1078 1316 1319  1   
1079 1320 1321  1   
1080 1321 1322  1   
1081 1321 1323  1   
1082 1321 1324  1   
1083 1325 1326  1   
1084 1326 1327  1   
1085 1326 1328  1   
1086 1326 1329  1   
1087 1330 1331  1   
1088 1331 1332  1   
1089 1331 1333  1   
1090 1331 1334  1   
1091 1335 1336  1   
1092 1336 1337  1   
1093 1336 1338  1   
1094 1336 1339  1   
1095 1340 1341  1   
1096 1341 1342  1   
1097 1341 1343  1   
1098 1341 1344  1   
1099 1345 1346  1   
1100 1346 1347  1   
1101 1346 1348  1   
1102 1346 1349  1   
1103 1350 1351  1   
1104 1351 1352  1   
1105 1351 1353  1   
1106 1351 1354  1   
1107 1355 1356  1   
1108 1356 1357  1   
1109 1356 1358  1   
1110 1356 1359  1   
1111 1360 1361  1   
1112 1361 1362  1   
1113 1361 1363  1   
1114 1361 1364  1   
1115 1365 1366  1   
1116 1366 1367  1   
1117 1366 1368  1   
1118 1366 1369  1   
1119 1370 1371  1   
1120 1371 1372  1   
1121 1371 1373  1   
1122 1371 1374  1   
1123 1375 1376  1   
1124 1376 1377  1   
1125 1376 1378  1   
1126 1376 1379  1   
1127 1380 1381  1   
1128 1381 1382  1   
1129 1381 1383  1   
1130 1381 1384  1   
1131 1385 1386  1   
1132 1386 1387  1   
1133 1386 1388  1   
1134 1386 1389  1   
1135 1390 1391  1   
1136 1391 1392  1   
1137 1391 1393  1   
1138 1391 1394  1   
1139 1395 1396  1   
1140 1396 1397  1   
1141 1396 1398  1   
1142 1396 1399  1   
1143 1400 1401  1   
1144 1401 1402  1   
1145 1401 1403  1   
1146 1401 1404  1   
1147 1405 1406  1   
1148 1406 1407  1   
1149 1406 1408  1   
1150 1406 1409  1   
1151 1410 1411  1   
1152 1411 1412  1   
1153 1411 1413  1   
1154 1411 1414  1   
1155 1415 1416  1   
1156 1416 1417  1   
1157 1416 1418  1   
1158 1416 1419  1   
1159 1420 1421  1   
1160 1421 1422  1   
1161 1421 1423  1   
1162 1421 1424  1   
1163 1425 1426  1   
1164 1426 1427  1   
1165 1426 1428  1   
1166 1426 1429  1   
1167 1430 1431  1   
1168 1431 1432  1   
1169 1431 1433  1   
1170 1431 1434  1   
1171 1435 1436  1   
1172 1436 1437  1   
1173 1436 1438  1   
1174 1436 1439  1   
1175 1440 1441  1   
1176 1441 1442  1   
1177 1441 1443  1   
1178 1441 1444  1   
1179 1445 1446  1   
1180 1446 1447  1   
1181 1446 1448  1   
1182 1446 1449  1   
1183 1450 1451  1   
1184 1451 1452  1   
1185 1451 1453  1   
1186 1451 1454  1   
1187 1455 1456  1   
1188 1456 1457  1   
1189 1456 1458  1   
1190 1456 1459  1   
1191 1460 1461  1   
1192 1461 1462  1   
1193 1461 1463  1   
1194 1461 1464  1   
1195 1465 1466  1   
1196 1466 1467  1   
1197 1466 1468  1   
1198 1466 1469  1   
1199 1470 1471  1   
1200 1471 1472  1   
1201 1471 1473  1   
1202 1471 1474  1   
1203 1475 1476  1   
1204 1476 1477  1   
1205 1476 1478  1   
1206 1476 1479  1   
1207 1480 1481  1   
1208 1481 1482  1   
1209 1481 1483  1   
1210 1481 1484  1   
1211 1485 1486  1   
1212 1486 1487  1   
1213 1486 1488  1   
1214 1486 1489  1   
1215 1490 1491  1   
1216 1491 1492  1   
1217 1491 1493  1   
1218 1491 1494  1   
1219 1495 1496  1   
1220 1496 1497  1   
1221 1496 1498  1   
1222 1496 1499  1   
1223 1500 1501  1   
1224 1501 1502  1   
1225 1501 1503  1   
1226 1501 1504  1   
1227 1505 1506  1   
1228 1506 1507  1   
1229 1506 1508  1   
1230 1506 1509  1   
1231 1510 1511  1   
1232 1511 1512  1   
1233 1511 1513  1   
1234 1511 1514  1   
1235 1515 1516  1   
1236 1516 1517  1   
1237 1516 1518  1   
1238 1516 1519  1   
1239 1520 1521  1   
1240 1521 1522  1   
1241 1521 1523  1   
1242 1521 1524  1   
1243 1525 1526  1   
1244 1526 1527  1   
1245 1526 1528  1   
1246 1526 1529  1   
1247 1530 1531  1   
1248 1531 1532  1   
1249 1531 1533  1   
1250 1531 1534  1   
1251 1535 1536  1   
1252 1536 1537  1   
1253 1536 1538  1   
1254 1536 1539  1   
1255 1540 1541  1   
1256 1541 1542  1   
1257 1541 1543  1   
1258 1541 1544  1   
1259 1545 1546  1   
1260 1546 1547  1   
1261 1546 1548  1   
1262 1546 1549  1   
1263 1550 1551  1   
1264 1551 1552  1   
1265 1551 1553  1   
1266 1551 1554  1   
1267 1555 1556  1   
1268 1556 1557  1   
1269 1556 1558  1   
1270 1556 1559  1   
1271 1560 1561  1   
1272 1561 1562  1   
1273 1561 1563  1   
1274 1561 1564  1   
1275 1565 1566  1   
1276 1566 1567  1   
1277 1566 1568  1   
1278 1566 1569  1   
1279 1570 1571  1   
1280 1571 1572  1   
1281 1571 1573  1   
1282 1571 1574  1   
1283 1575 1576  1   
1284 1576 1577  1   
1285 1576 1578  1   
1286 1576 1579  1   
1287 1580 1581  1   
1288 1581 1582  1   
1289 1581 1583  1   
1290 1581 1584  1   
1291 1585 1586  1   
1292 1586 1587  1   
1293 1586 1588  1   
1294 1586 1589  1   
1295 1590 1591  1   
1296 1591 1592  1   
1297 1591 1593  1   
1298 1591 1594  1   
1299 1595 1596  1   
1300 1596 1597  1   
1301 1596 1598  1   
1302 1596 1599  1   
1303 1600 1601  1   
1304 1601 1602  1   
1305 1601 1603  1   
1306 1601 1604  1   
1307 1605 1606  1   
1308 1606 1607  1   
1309 1606 1608  1   
1310 1606 1609  1   
1311 1610 1611  1   
1312 1611 1612  1   
1313 1611 1613  1   
1314 1611 1614  1   
1315 1615 1616  1   
1316 1616 1617  1   
1317 1616 1618  1   
1318 1616 1619  1   
1319 1620 1621  1   
1320 1621 1622  1   
1321 1621 1623  1   
1322 1621 1624  1   
1323 1625 1626  1   
1324 1626 1627  1   
1325 1626 1628  1   
1326 1626 1629  1   
1327 1630 1631  1   
1328 1631 1632  1   
1329 1631 1633  1   
1330 1631 1634  1   
1331 1635 1636  1   
1332 1636 1637  1   
1333 1636 1638  1   
1334 1636 1639  1   
1335 1640 1641  1   
1336 1641 1642  1   
1337 1641 1643  1   
1338 1641 1644  1   
1339 1645 1646  1   
1340 1646 1647  1   
1341 1646 1648  1   
1342 1646 1649  1   
1343 1650 1651  1   
1344 1651 1652  1   
1345 1651 1653  1   
1346 1651 1654  1   
1347 1655 1656  1   
1348 1656 1657  1   
1349 1656 1658  1   
1350 1656 1659  1   
1351 1660 1661  1   
1352 1661 1662  1   
1353 1661 1663  1   
1354 1661 1664  1   
1355 1665 1666  1   
1356 1666 1667  1   
1357 1666 1668  1   
1358 1666 1669  1   
1359 1670 1671  1   
1360 1671 1672  1   
1361 1671 1673  1   
1362 1671 1674  1   
1363 1675 1676  1   
1364 1676 1677  1   
1365 1676 1678  1   
1366 1676 1679  1   
1367 1680 1681  1   
1368 1681 1682  1   
1369 1681 1683  1   
1370 1681 1684  1   
1371 1685 1686  1   
1372 1686 1687  1   
1373 1686 1688  1   
1374 1686 1689  1   
1375 1690 1691  1   
1376 1691 1692  1   
1377 1691 1693  1   
1378 1691 1694  1   
1379 1695 1696  1   
1380 1696 1697  1   
1381 1696 1698  1   
1382 1696 1699  1   
1383 1700 1701  1   
1384 1701 1702  1   
1385 1701 1703  1   
1386 1701 1704  1   
1387 1705 1706  1   
1388 1706 1707  1   
1389 1706 1708  1   
1390 1706 1709  1   
1391 1710 1711  1   
1392 1711 1712  1   
1393 1711 1713  1   
1394 1711 1714  1   
1395 1715 1716  1   
1396 1716 1717  1   
1397 1716 1718  1   
1398 1716 1719  1   
1399 1720 1721  1   
1400 1721 1722  1   
1401 1721 1723  1   
1402 1721 1724  1   
1403 1725 1726  1   
1404 1726 1727  1   
1405 1726 1728  1   
1406 1726 1729  1   
1407 1730 1731  1   
1408 1731 1732  1   
1409 1731 1733  1   
1410 1731 1734  1   
1411 1735 1736  1   
1412 1736 1737  1   
1413 1736 1738  1   
1414 1736 1739  1   
1415 1740 1741  1   
1416 1741 1742  1   
1417 1741 1743  1   
1418 1741 1744  1   
1419 1745 1746  1   
1420 1746 1747  1   
1421 1746 1748  1   
1422 1746 1749  1   
1423 1750 1751  1   
1424 1751 1752  1   
1425 1751 1753  1   
1426 1751 1754  1   
1427 1755 1756  1   
1428 1756 1757  1   
1429 1756 1758  1   
1430 1756 1759  1   
1431 1760 1761  1   
1432 1761 1762  1   
1433 1761 1763  1   
1434 1761 1764  1   
1435 1765 1766  1   
1436 1766 1767  1   
1437 1766 1768  1   
1438 1766 1769  1   
1439 1770 1771  1   
1440 1771 1772  1   
1441 1771 1773  1   
1442 1771 1774  1   
1443 1775 1776  1   
1444 1776 1777  1   
1445 1776 1778  1   
1446 1776 1779  1   
1447 1780 1781  1   
1448 1781 1782  1   
1449 1781 1783  1   
1450 1781 1784  1   
1451 1785 1786  1   
1452 1786 1787  1   
1453 1786 1788  1   
1454 1786 1789  1   
1455 1790 1791  1   
1456 1791 1792  1   
1457 1791 1793  1   
1458 1791 1794  1   
1459 1795 1796  1   
1460 1796 1797  1   
1461 1796 1798  1   
1462 1796 1799  1   
1463 1800 1801  1   
1464 1801 1802  1   
1465 1801 1803  1   
1466 1801 1804  1   
1467 1805 1806  1   
1468 1806 1807  1   
1469 1806 1808  1   
1470 1806 1809  1   
1471 1810 1811  1   
1472 1811 1812  1   
1473 1811 1813  1   
1474 1811 1814  1   
1475 1815 1816  1   
1476 1816 1817  1   
1477 1816 1818  1   
1478 1816 1819  1   
1479 1820 1821  1   
1480 1821 1822  1   
1481 1821 1823  1   
1482 1821 1824  1   
1483 1825 1826  1   
1484 1826 1827  1   
1485 1826 1828  1   
1486 1826 1829  1   
1487 1830 1831  1   
1488 1831 1832  1   
1489 1831 1833  1   
1490 1831 1834  1   
1491 1835 1836  1   
1492 1836 1837  1   
1493 1836 1838  1   
1494 1836 1839  1   
1495 1840 1841  1   
1496 1841 1842  1   
1497 1841 1843  1   
1498 1841 1844  1   
1499 1845 1846  1   
1500 1846 1847  1   
1501 1846 1848  1   
1502 1846 1849  1   
1503 1850 1851  1   
1504 1851 1852  1   
1505 1851 1853  1   
1506 1851 1854  1   
1507 1855 1856  1   
1508 1856 1857  1   
1509 1856 1858  1   
1510 1856 1859  1   
1511 1860 1861  1   
1512 1861 1862  1   
1513 1861 1863  1   
1514 1861 1864  1   
1515 1865 1866  1   
1516 1866 1867  1   
1517 1866 1868  1   
1518 1866 1869  1   
1519 1870 1871  1   
1520 1871 1872  1   
1521 1871 1873  1   
1522 1871 1874  1   
1523 1875 1876  1   
1524 1876 1877  1   
1525 1876 1878  1   
1526 1876 1879  1   
1527 1880 1881  1   
1528 1881 1882  1   
1529 1881 1883  1   
1530 1881 1884  1   
1531 1885 1886  1   
1532 1886 1887  1   
1533 1886 1888  1   
1534 1886 1889  1   
1535 1890 1891  1   
1536 1891 1892  1   
1537 1891 1893  1   
1538 1891 1894  1   
1539 1895 1896  1   
1540 1896 1897  1   
1541 1896 1898  1   
1542 1896 1899  1   
1543 1900 1901  1   
1544 1901 1902  1   
1545 1901 1903  1   
1546 1901 1904  1   
1547 1905 1906  1   
1548 1906 1907  1   
1549 1906 1908  1   
1550 1906 1909  1   
1551 1910 1911  1   
1552 1911 1912  1   
1553 1911 1913  1   
1554 1911 1914  1   
1555 1915 1916  1   
1556 1916 1917  1   
1557 1916 1918  1   
1558 1916 1919  1   
1559 1920 1921  1   
1560 1921 1922  1   
1561 1921 1923  1   
1562 1921 1924  1   
1563 1925 1926  1   
1564 1926 1927  1   
1565 1926 1928  1   
1566 1926 1929  1   
1567 1930 1931  1   
1568 1931 1932  1   
1569 1931 1933  1   
1570 1931 1934  1   
1571 1935 1936  1   
1572 1936 1937  1   
1573 1936 1938  1   
1574 1936 1939  1   
1575 1940 1941  1   
1576 1941 1942  1   
1577 1941 1943  1   
1578 1941 1944  1   
1579 1945 1946  1   
1580 1946 1947  1   
1581 1946 1948  1   
1582 1946 1949  1   
1583 1950 1951  1   
1584 1951 1952  1   
1585 1951 1953  1   
1586 1951 1954  1   
1587 1955 1956  1   
1588 1956 1957  1   
1589 1956 1958  1   
1590 1956 1959  1   
1591 1960 1961  1   
1592 1961 1962  1   
1593 1961 1963  1   
1594 1961 1964  1   
1595 1965 1966  1   
1596 1966 1967  1   
1597 1966 1968  1   
1598 1966 1969  1   
1599 1970 1971  1   
1600 1971 1972  1   
1601 1971 1973  1   
1602 1971 1974  1   
1603 1975 1976  1   
1604 1976 1977  1   
1605 1976 1978  1   
1606 1976 1979  1   
1607 1980 1981  1   
1608 1981 1982  1   
1609 1981 1983  1   
1610 1981 1984  1   
1611 1985 1986  1   
1612 1986 1987  1   
1613 1986 1988  1   
1614 1986 1989  1   
1615 1990 1991  1   
1616 1991 1992  1   
1617 1991 1993  1   
1618 1991 1994  1   
1619 1995 1996  1   
1620 1996 1997  1   
1621 1996 1998  1   
1622 1996 1999  1   
1623 2000 2001  1   
1624 2001 2002  1   
1625 2001 2003  1   
1626 2001 2004  1   
1627 2005 2006  1   
1628 2006 2007  1   
1629 2006 2008  1   
1630 2006 2009  1   
1631 2010 2011  1   
1632 2011 2012  1   
1633 2011 2013  1   
1634 2011 2014  1   
1635 2015 2016  1   
1636 2016 2017  1   
1637 2016 2018  1   
1638 2016 2019  1   
1639 2020 2021  1   
1640 2021 2022  1   
1641 2021 2023  1   
1642 2021 2024  1   
1643 2025 2026  1   
1644 2026 2027  1   
1645 2026 2028  1   
1646 2026 2029  1   
1647 2030 2031  1   
1648 2031 2032  1   
1649 2031 2033  1   
1650 2031 2034  1   
1651 2035 2036  1   
1652 2036 2037  1   
1653 2036 2038  1   
1654 2036 2039  1   
1655 2040 2041  1   
1656 2041 2042  1   
1657 2041 2043  1   
1658 2041 2044  1   
1659 2045 2046  1   
1660 2046 2047  1   
1661 2046 2048  1   
1662 2046 2049  1   
1663 2050 2051  1   
1664 2051 2052  1   
1665 2051 2053  1   
1666 2051 2054  1   
1667 2055 2056  1   
1668 2056 2057  1   
1669 2056 2058  1   
1670 2056 2059  1   
1671 2060 2061  1   
1672 2061 2062  1   
1673 2061 2063  1   
1674 2061 2064  1   
1675 2065 2066  1   
1676 2066 2067  1   
1677 2066 2068  1   
1678 2066 2069  1   
1679 2070 2071  1   
1680 2071 2072  1   
1681 2071 2073  1   
1682 2071 2074  1   
1683 2075 2076  1   
1684 2076 2077  1   
1685 2076 2078  1   
1686 2076 2079  1   
1687 2080 2081  1   
1688 2081 2082  1   
1689 2081 2083  1   
1690 2081 2084  1   
1691 2085 2086  1   
1692 2086 2087  1   
1693 2086 2088  1   
1694 2086 2089  1   
1695 2090 2091  1   
1696 2091 2092  1   
1697 2091 2093  1   
1698 2091 2094  1   
1699 2095 2096  1   
1700 2096 2097  1   
1701 2096 2098  1   
1702 2096 2099  1   
1703 2100 2101  1   
1704 2101 2102  1   
1705 2101 2103  1   
1706 2101 2104  1   
1707 2105 2106  1   
1708 2106 2107  1   
1709 2106 2108  1   
1710 2106 2109  1   
1711 2110 2111  1   
1712 2111 2112  1   
1713 2111 2113  1   
1714 2111 2114  1   
1715 2115 2116  1   
1716 2116 2117  1   
1717 2116 2118  1   
1718 2116 2119  1   
1719 2120 2121  1   
1720 2121 2122  1   
1721 2121 2123  1   
1722 2121 2124  1   
1723 2125 2126  1   
1724 2126 2127  1   
1725 2126 2128  1   
1726 2126 2129  1   
1727 2130 2131  1   
1728 2131 2132  1   
1729 2131 2133  1   
1730 2131 2134  1   
1731 2135 2136  1   
1732 2136 2137  1   
1733 2136 2138  1   
1734 2136 2139  1   
1735 2140 2141  1   
1736 2141 2142  1   
1737 2141 2143  1   
1738 2141 2144  1   
1739 2145 2146  1   
1740 2146 2147  1   
1741 2146 2148  1   
1742 2146 2149  1   
1743 2150 2151  1   
1744 2151 2152  1   
1745 2151 2153  1   
1746 2151 2154  1   
1747 2155 2156  1   
1748 2156 2157  1   
1749 2156 2158  1   
1750 2156 2159  1   
1751 2160 2161  1   
1752 2161 2162  1   
1753 2161 2163  1   
1754 2161 2164  1   
1755 2165 2166  1   
1756 2166 2167  1   
1757 2166 2168  1   
1758 2166 2169  1   
1759 2170 2171  1   
1760 2171 2172  1   
1761 2171 2173  1   
1762 2171 2174  1   
1763 2175 2176  1   
1764 2176 2177  1   
1765 2176 2178  1   
1766 2176 2179  1   
1767 2180 2181  1   
1768 2181 2182  1   
1769 2181 2183  1   
1770 2181 2184  1   
1771 2185 2186  1   
1772 2186 2187  1   
1773 2186 2188  1   
1774 2186 2189  1   
1775 2190 2191  1   
1776 2191 2192  1   
1777 2191 2193  1   
1778 2191 2194  1   
1779 2195 2196  1   
1780 2196 2197  1   
1781 2196 2198  1   
1782 2196 2199  1   
1783 2200 2201  1   
1784 2201 2202  1   
1785 2201 2203  1   
1786 2201 2204  1   
1787 2205 2206  1   
1788 2206 2207  1   
1789 2206 2208  1   
1790 2206 2209  1   
1791 2210 2211  1   
1792 2211 2212  1   
1793 2211 2213  1   
1794 2211 2214  1   
1795 2215 2216  1   
1796 2216 2217  1   
1797 2216 2218  1   
1798 2216 2219  1   
1799 2220 2221  1   
1800 2221 2222  1   
1801 2221 2223  1   
1802 2221 2224  1   
1803 2225 2226  1   
1804 2226 2227  1   
1805 2226 2228  1   
1806 2226 2229  1   
1807 2230 2231  1   
1808 2231 2232  1   
1809 2231 2233  1   
1810 2231 2234  1   
1811 2235 2236  1   
1812 2236 2237  1   
1813 2236 2238  1   
1814 2236 2239  1   
1815 2240 2241  1   
1816 2241 2242  1   
1817 2241 2243  1   
1818 2241 2244  1   
1819 2245 2246  1   
1820 2246 2247  1   
1821 2246 2248  1   
1822 2246 2249  1   
1823 2250 2251  1   
1824 2251 2252  1   
1825 2251 2253  1   
1826 2251 2254  1   
1827 2255 2256  1   
1828 2256 2257  1   
1829 2256 2258  1   
1830 2256 2259  1   
1831 2260 2261  1   
1832 2261 2262  1   
1833 2261 2263  1   
1834 2261 2264  1   
1835 2265 2266  1   
1836 2266 2267  1   
1837 2266 2268  1   
1838 2266 2269  1   
1839 2270 2271  1   
1840 2271 2272  1   
1841 2271 2273  1   
1842 2271 2274  1   
1843 2275 2276  1   
1844 2276 2277  1   
1845 2276 2278  1   
1846 2276 2279  1   
1847 2280 2281  1   
1848 2281 2282  1   
1849 2281 2283  1   
1850 2281 2284  1   
1851 2285 2286  1   
1852 2286 2287  1   
1853 2286 2288  1   
1854 2286 2289  1   
1855 2290 2291  1   
1856 2291 2292  1   
1857 2291 2293  1   
1858 2291 2294  1   
1859 2295 2296  1   
1860 2296 2297  1   
1861 2296 2298  1   
1862 2296 2299  1   
1863 2300 2301  1   
1864 2301 2302  1   
1865 2301 2303  1   
1866 2301 2304  1   
1867 2305 2306  1   
1868 2306 2307  1   
1869 2306 2308  1   
1870 2306 2309  1   
1871 2310 2311  1   
1872 2311 2312  1   
1873 2311 2313  1   
1874 2311 2314  1   
1875 2315 2316  1   
1876 2316 2317  1   
1877 2316 2318  1   
1878 2316 2319  1   
1879 2320 2321  1   
1880 2321 2322  1   
1881 2321 2323  1   
1882 2321 2324  1   
1883 2325 2326  1   
1884 2326 2327  1   
1885 2326 2328  1   
1886 2326 2329  1   
1887 2330 2331  1   
1888 2331 2332  1   
1889 2331 2333  1   
1890 2331 2334  1   
1891 2335 2336  1   
1892 2336 2337  1   
1893 2336 2338  1   
1894 2336 2339  1   
1895 2340 2341  1   
1896 2341 2342  1   
1897 2341 2343  1   
1898 2341 2344  1   
1899 2345 2346  1   
1900 2346 2347  1   
1901 2346 2348  1   
1902 2346 2349  1   
1903 2350 2351  1   
1904 2351 2352  1   
1905 2351 2353  1   
1906 2351 2354  1   
1907 2355 2356  1   
1908 2356 2357  1   
1909 2356 2358  1   
1910 2356 2359  1   
1911 2360 2361  1   
1912 2361 2362  1   
1913 2361 2363  1   
1914 2361 2364  1   
1915 2365 2366  1   
1916 2366 2367  1   
1917 2366 2368  1   
1918 2366 2369  1   
1919 2370 2371  1   
1920 2371 2372  1   
1921 2371 2373  1   
1922 2371 2374  1   
1923 2375 2376  1   
1924 2376 2377  1   
1925 2376 2378  1   
1926 2376 2379  1   
1927 2380 2381  1   
1928 2381 2382  1   
1929 2381 2383  1   
1930 2381 2384  1   
1931 2385 2386  1   
1932 2386 2387  1   
1933 2386 2388  1   
1934 2386 2389  1   
1935 2390 2391  1   
1936 2391 2392  1   
1937 2391 2393  1   
1938 2391 2394  1   
1939 2395 2396  1   
1940 2396 2397  1   
1941 2396 2398  1   
1942 2396 2399  1   
1943 2400 2401  1   
1944 2401 2402  1   
1945 2401 2403  1   
1946 2401 2404  1   
1947 2405 2406  1   
1948 2406 2407  1   
1949 2406 2408  1   
1950 2406 2409  1   
1951 2410 2411  1   
1952 2411 2412  1   
1953 2411 2413  1   
1954 2411 2414  1   
1955 2415 2416  1   
1956 2416 2417  1   
1957 2416 2418  1   
1958 2416 2419  1   
1959 2420 2421  1   
1960 2421 2422  1   
1961 2421 2423  1   
1962 2421 2424  1   
1963 2425 2426  1   
1964 2426 2427  1   
1965 2426 2428  1   
1966 2426 2429  1   
1967 2430 2431  1   
1968 2431 2432  1   
1969 2431 2433  1   
1970 2431 2434  1   
1971 2435 2436  1   
1972 2436 2437  1   
1973 2436 2438  1   
1974 2436 2439  1   
1975 2440 2441  1   
1976 2441 2442  1   
1977 2441 2443  1   
1978 2441 2444  1   
1979 2445 2446  1   
1980 2446 2447  1   
1981 2446 2448  1   
1982 2446 2449  1   
1983 2450 2451  1   
1984 2451 2452  1   
1985 2451 2453  1   
1986 2451 2454  1   
1987 2455 2456  1   
1988 2456 2457  1   
1989 2456 2458  1   
1990 2456 2459  1   
1991 2460 2461  1   
1992 2461 2462  1   
1993 2461 2463  1   
1994 2461 2464  1   
1995 2465 2466  1   
1996 2466 2467  1   
1997 2466 2468  1   
1998 2466 2469  1   
1999 2470 2471  1   
2000 2471 2472  1   
2001 2471 2473  1   
2002 2471 2474  1   
2003 2475 2476  1   
2004 2476 2477  1   
2005 2476 2478  1   
2006 2476 2479  1   
2007 2480 2481  1   
2008 2481 2482  1   
2009 2481 2483  1   
2010 2481 2484  1   
2011 2485 2486  1   
2012 2486 2487  1   
2013 2486 2488  1   
2014 2486 2489  1   
2015 2490 2491  1   
2016 2491 2492  1   
2017 2491 2493  1   
2018 2491 2494  1   
2019 2495 2496  1   
2020 2496 2497  1   
2021 2496 2498  1   
2022 2496 2499  1   
2023 2500 2501  1   
2024 2501 2502  1   
2025 2501 2503  1   
2026 2501 2504  1   
2027 2505 2506  1   
2028 2506 2507  1   
2029 2506 2508  1   
2030 2506 2509  1   
2031 2510 2511  1   
2032 2511 2512  1   
2033 2511 2513  1   
2034 2511 2514  1   
2035 2515 2516  1   
2036 2516 2517  1   
2037 2516 2518  1   
2038 2516 2519  1   
2039 2520 2521  1   
2040 2521 2522  1   
2041 2521 2523  1   
2042 2521 2524  1   
2043 2525 2526  1   
2044 2526 2527  1   
2045 2526 2528  1   
2046 2526 2529  1   
2047 2530 2531  1   
2048 2531 2532  1   
2049 2531 2533  1   
2050 2531 2534  1   
2051 2535 2536  1   
2052 2536 2537  1   
2053 2536 2538  1   
2054 2536 2539  1   
2055 2540 2541  1   
2056 2541 2542  1   
2057 2541 2543  1   
2058 2541 2544  1   
2059 2545 2546  1   
2060 2546 2547  1   
2061 2546 2548  1   
2062 2546 2549  1   
2063 2550 2551  1   
2064 2551 2552  1   
2065 2551 2553  1   
2066 2551 2554  1   
2067 2555 2556  1   
2068 2556 2557  1   
2069 2556 2558  1   
2070 2556 2559  1   
2071 2560 2561  1   
2072 2561 2562  1   
2073 2561 2563  1   
2074 2561 2564  1   
2075 2565 2566  1   
2076 2566 2567  1   
2077 2566 2568  1   
2078 2566 2569  1   
@<TRIPOS>SUBSTRUCTURE
  1 ****   13 GROUP 4 Q1 **** 0
  2 CCL4  111 GROUP 4 Q2 **** 0
  3 CCL4  116 GROUP 4 Q2 **** 0
  4 CCL4  121 GROUP 4 Q2 **** 0
  5 CCL4  126 GROUP 4 Q2 **** 0
  6 CCL4  131 GROUP 4 Q2 **** 0
  7 CCL4  136 GROUP 4 Q2 **** 0
  8 CCL4  141 GROUP 4 Q2 **** 0
  9 CCL4  146 GROUP 4 Q2 **** 0
 10 CCL4  151 GROUP 4 Q2 **** 0
 11 CCL4  156 GROUP 4 Q2 **** 0
 12 CCL4  161 GROUP 4 Q2 **** 0
 13 CCL4  166 GROUP 4 Q2 **** 0
 14 CCL4  171 GROUP 4 Q2 **** 0
 15 CCL4  176 GROUP 4 Q2 **** 0
 16 CCL4  181 GROUP 4 Q2 **** 0
 17 CCL4  186 GROUP 4 Q2 **** 0
 18 CCL4  191 GROUP 4 Q2 **** 0
 19 CCL4  196 GROUP 4 Q2 **** 0
 20 CCL4  201 GROUP 4 Q2 **** 0
 21 CCL4  206 GROUP 4 Q2 **** 0
 22 CCL4  211 GROUP 4 Q2 **** 0
 23 CCL4  216 GROUP 4 Q2 **** 0
 24 CCL4  221 GROUP 4 Q2 **** 0
 25 CCL4  226 GROUP 4 Q2 **** 0
 26 CCL4  231 GROUP 4 Q2 **** 0
 27 CCL4  236 GROUP 4 Q2 **** 0
 28 CCL4  241 GROUP 4 Q2 **** 0
 29 CCL4  246 GROUP 4 Q2 **** 0
 30 CCL4  251 GROUP 4 Q2 **** 0
 31 CCL4  256 GROUP 4 Q2 **** 0
 32 CCL4  261 GROUP 4 Q2 **** 0
 33 CCL4  266 GROUP 4 Q2 **** 0
 34 CCL4  271 GROUP 4 Q2 **** 0
 35 CCL4  276 GROUP 4 Q2 **** 0
 36 CCL4  281 GROUP 4 Q2 **** 0
 37 CCL4  286 GROUP 4 Q2 **** 0
 38 CCL4  291 GROUP 4 Q2 **** 0
 39 CCL4  296 GROUP 4 Q2 **** 0
 40 CCL4  301 GROUP 4 Q2 **** 0
 41 CCL4  306 GROUP 4 Q2 **** 0
 42 CCL4  311 GROUP 4 Q2 **** 0
 43 CCL4  316 GROUP 4 Q2 **** 0
 44 CCL4  321 GROUP 4 Q2 **** 0
 45 CCL4  326 GROUP 4 Q2 **** 0
 46 CCL4  331 GROUP 4 Q2 **** 0
 47 CCL4  336 GROUP 4 Q2 **** 0
 48 CCL4  341 GROUP 4 Q2 **** 0
 49 CCL4  346 GROUP 4 Q2 **** 0
 50 CCL4  351 GROUP 4 Q2 **** 0
 51 CCL4  356 GROUP 4 Q2 **** 0
 52 CCL4  361 GROUP 4 Q2 **** 0
 53 CCL4  366 GROUP 4 Q2 **** 0
 54 CCL4  371 GROUP 4 Q2 **** 0
 55 CCL4  376 GROUP 4 Q2 **** 0
 56 CCL4  381 GROUP 4 Q2 **** 0
 57 CCL4  386 GROUP 4 Q2 **** 0
 58 CCL4  391 GROUP 4 Q2 **** 0
 59 CCL4  396 GROUP 4 Q2 **** 0
 60 CCL4  401 GROUP 4 Q2 **** 0
 61 CCL4  406 GROUP 4 Q2 **** 0
 62 CCL4  411 GROUP 4 Q2 **** 0
 63 CCL4  416 GROUP 4 Q2 **** 0
 64 CCL4  421 GROUP 4 Q2 **** 0
 65 CCL4  426 GROUP 4 Q2 **** 0
 66 CCL4  431 GROUP 4 Q2 **** 0
 67 CCL4  436 GROUP 4 Q2 **** 0
 68 CCL4  441 GROUP 4 Q2 **** 0
 69 CCL4  446 GROUP 4 Q2 **** 0
 70 CCL4  451 GROUP 4 Q2 **** 0
 71 CCL4  456 GROUP 4 Q2 **** 0
 72 CCL4  461 GROUP 4 Q2 **** 0
 73 CCL4  466 GROUP 4 Q2 **** 0
 74 CCL4  471 GROUP 4 Q2 **** 0
 75 CCL4  476 GROUP 4 Q2 **** 0
 76 CCL4  481 GROUP 4 Q2 **** 0
 77 CCL4  486 GROUP 4 Q2 **** 0
 78 CCL4  491 GROUP 4 Q2 **** 0
 79 CCL4  496 GROUP 4 Q2 **** 0
 80 CCL4  501 GROUP 4 Q2 **** 0
 81 CCL4  506 GROUP 4 Q2 **** 0
 82 CCL4  511 GROUP 4 Q2 **** 0
 83 CCL4  516 GROUP 4 Q2 **** 0
 84 CCL4  521 GROUP 4 Q2 **** 0
 85 CCL4  526 GROUP 4 Q2 **** 0
 86 CCL4  531 GROUP 4 Q2 **** 0
 87 CCL4  536 GROUP 4 Q2 **** 0
 88 CCL4  541 GROUP 4 Q2 **** 0
 89 CCL4  546 GROUP 4 Q2 **** 0
 90 CCL4  551 GROUP 4 Q2 **** 0
 91 CCL4  556 GROUP 4 Q2 **** 0
 92 CCL4  561 GROUP 4 Q2 **** 0
 93 CCL4  566 GROUP 4 Q2 **** 0
 94 CCL4  571 GROUP 4 Q2 **** 0
 95 CCL4  576 GROUP 4 Q2 **** 0
 96 CCL4  581 GROUP 4 Q2 **** 0
 97 CCL4  586 GROUP 4 Q2 **** 0
 98 CCL4  591 GROUP 4 Q2 **** 0
 99 CCL4  596 GROUP 4 Q2 **** 0
100 CCL4  601 GROUP 4 Q2 **** 0
101 CCL4  606 GROUP 4 Q2 **** 0
102 CCL4  611 GROUP 4 Q2 **** 0
103 CCL4  616 GROUP 4 Q2 **** 0
104 CCL4  621 GROUP 4 Q2 **** 0
105 CCL4  626 GROUP 4 Q2 **** 0
106 CCL4  631 GROUP 4 Q2 **** 0
107 CCL4  636 GROUP 4 Q2 **** 0
108 CCL4  641 GROUP 4 Q2 **** 0
109 CCL4  646 GROUP 4 Q2 **** 0
110 CCL4  651 GROUP 4 Q2 **** 0
111 CCL4  656 GROUP 4 Q2 **** 0
112 CCL4  661 GROUP 4 Q2 **** 0
113 CCL4  666 GROUP 4 Q2 **** 0
114 CCL4  671 GROUP 4 Q2 **** 0
115 CCL4  676 GROUP 4 Q2 **** 0
116 CCL4  681 GROUP 4 Q2 **** 0
117 CCL4  686 GROUP 4 Q2 **** 0
118 CCL4  691 GROUP 4 Q2 **** 0
119 CCL4  696 GROUP 4 Q2 **** 0
120 CCL4  701 GROUP 4 Q2 **** 0
121 CCL4  706 GROUP 4 Q2 **** 0
122 CCL4  711 GROUP 4 Q2 **** 0
123 CCL4  716 GROUP 4 Q2 **** 0
124 CCL4  721 GROUP 4 Q2 **** 0
125 CCL4  726 GROUP 4 Q2 **** 0
126 CCL4  731 GROUP 4 Q2 **** 0
127 CCL4  736 GROUP 4 Q2 **** 0
128 CCL4  741 GROUP 4 Q2 **** 0
129 CCL4  746 GROUP 4 Q2 **** 0
130 CCL4  751 GROUP 4 Q2 **** 0
131 CCL4  756 GROUP 4 Q2 **** 0
132 CCL4  761 GROUP 4 Q2 **** 0
133 CCL4  766 GROUP 4 Q2 **** 0
134 CCL4  771 GROUP 4 Q2 **** 0
135 CCL4  776 GROUP 4 Q2 **** 0
136 CCL4  781 GROUP 4 Q2 **** 0
137 CCL4  786 GROUP 4 Q2 **** 0
138 CCL4  791 GROUP 4 Q2 **** 0
139 CCL4  796 GROUP 4 Q2 **** 0
140 CCL4  801 GROUP 4 Q2 **** 0
141 CCL4  806 GROUP 4 Q2 **** 0
142 CCL4  811 GROUP 4 Q2 **** 0
143 CCL4  816 GROUP 4 Q2 **** 0
144 CCL4  821 GROUP 4 Q2 **** 0
145 CCL4  826 GROUP 4 Q2 **** 0
146 CCL4  831 GROUP 4 Q2 **** 0
147 CCL4  836 GROUP 4 Q2 **** 0
148 CCL4  841 GROUP 4 Q2 **** 0
149 CCL4  846 GROUP 4 Q2 **** 0
150 CCL4  851 GROUP 4 Q2 **** 0
151 CCL4  856 GROUP 4 Q2 **** 0
152 CCL4  861 GROUP 4 Q2 **** 0
153 CCL4  866 GROUP 4 Q2 **** 0
154 CCL4  871 GROUP 4 Q2 **** 0
155 CCL4  876 GROUP 4 Q2 **** 0
156 CCL4  881 GROUP 4 Q2 **** 0
157 CCL4  886 GROUP 4 Q2 **** 0
158 CCL4  891 GROUP 4 Q2 **** 0
159 CCL4  896 GROUP 4 Q2 **** 0
160 CCL4  901 GROUP 4 Q2 **** 0
161 CCL4  906 GROUP 4 Q2 **** 0
162 CCL4  911 GROUP 4 Q2 **** 0
163 CCL4  916 GROUP 4 Q2 **** 0
164 CCL4  921 GROUP 4 Q2 **** 0
165 CCL4  926 GROUP 4 Q2 **** 0
166 CCL4  931 GROUP 4 Q2 **** 0
167 CCL4  936 GROUP 4 Q2 **** 0
168 CCL4  941 GROUP 4 Q2 **** 0
169 CCL4  946 GROUP 4 Q2 **** 0
170 CCL4  951 GROUP 4 Q2 **** 0
171 CCL4  956 GROUP 4 Q2 **** 0
172 CCL4  961 GROUP 4 Q2 **** 0
173 CCL4  966 GROUP 4 Q2 **** 0
174 CCL4  971 GROUP 4 Q2 **** 0
175 CCL4  976 GROUP 4 Q2 **** 0
176 CCL4  981 GROUP 4 Q2 **** 0
177 CCL4  986 GROUP 4 Q2 **** 0
178 CCL4  991 GROUP 4 Q2 **** 0
179 CCL4  996 GROUP 4 Q2 **** 0
180 CCL4 1001 GROUP 4 Q2 **** 0
181 CCL4 1006 GROUP 4 Q2 **** 0
182 CCL4 1011 GROUP 4 Q2 **** 0
183 CCL4 1016 GROUP 4 Q2 **** 0
184 CCL4 1021 GROUP 4 Q2 **** 0
185 CCL4 1026 GROUP 4 Q2 **** 0
186 CCL4 1031 GROUP 4 Q2 **** 0
187 CCL4 1036 GROUP 4 Q2 **** 0
188 CCL4 1041 GROUP 4 Q2 **** 0
189 CCL4 1046 GROUP 4 Q2 **** 0
190 CCL4 1051 GROUP 4 Q2 **** 0
191 CCL4 1056 GROUP 4 Q2 **** 0
192 CCL4 1061 GROUP 4 Q2 **** 0
193 CCL4 1066 GROUP 4 Q2 **** 0
194 CCL4 1071 GROUP 4 Q2 **** 0
195 CCL4 1076 GROUP 4 Q2 **** 0
196 CCL4 1081 GROUP 4 Q2 **** 0
197 CCL4 1086 GROUP 4 Q2 **** 0
198 CCL4 1091 GROUP 4 Q2 **** 0
199 CCL4 1096 GROUP 4 Q2 **** 0
200 CCL4 1101 GROUP 4 Q2 **** 0
201 CCL4 1106 GROUP 4 Q2 **** 0
202 CCL4 1111 GROUP 4 Q2 **** 0
203 CCL4 1116 GROUP 4 Q2 **** 0
204 CCL4 1121 GROUP 4 Q2 **** 0
205 CCL4 1126 GROUP 4 Q2 **** 0
206 CCL4 1131 GROUP 4 Q2 **** 0
207 CCL4 1136 GROUP 4 Q2 **** 0
208 CCL4 1141 GROUP 4 Q2 **** 0
209 CCL4 1146 GROUP 4 Q2 **** 0
210 CCL4 1151 GROUP 4 Q2 **** 0
211 CCL4 1156 GROUP 4 Q2 **** 0
212 CCL4 1161 GROUP 4 Q2 **** 0
213 CCL4 1166 GROUP 4 Q2 **** 0
214 CCL4 1171 GROUP 4 Q2 **** 0
215 CCL4 1176 GROUP 4 Q2 **** 0
216 CCL4 1181 GROUP 4 Q2 **** 0
217 CCL4 1186 GROUP 4 Q2 **** 0
218 CCL4 1191 GROUP 4 Q2 **** 0
219 CCL4 1196 GROUP 4 Q2 **** 0
220 CCL4 1201 GROUP 4 Q2 **** 0
221 CCL4 1206 GROUP 4 Q2 **** 0
222 CCL4 1211 GROUP 4 Q2 **** 0
223 CCL4 1216 GROUP 4 Q2 **** 0
224 CCL4 1221 GROUP 4 Q2 **** 0
225 CCL4 1226 GROUP 4 Q2 **** 0
226 CCL4 1231 GROUP 4 Q2 **** 0
227 CCL4 1236 GROUP 4 Q2 **** 0
228 CCL4 1241 GROUP 4 Q2 **** 0
229 CCL4 1246 GROUP 4 Q2 **** 0
230 CCL4 1251 GROUP 4 Q2 **** 0
231 CCL4 1256 GROUP 4 Q2 **** 0
232 CCL4 1261 GROUP 4 Q2 **** 0
233 CCL4 1266 GROUP 4 Q2 **** 0
234 CCL4 1271 GROUP 4 Q2 **** 0
235 CCL4 1276 GROUP 4 Q2 **** 0
236 CCL4 1281 GROUP 4 Q2 **** 0
237 CCL4 1286 GROUP 4 Q2 **** 0
238 CCL4 1291 GROUP 4 Q2 **** 0
239 CCL4 1296 GROUP 4 Q2 **** 0
240 CCL4 1301 GROUP 4 Q2 **** 0
241 CCL4 1306 GROUP 4 Q2 **** 0
242 CCL4 1311 GROUP 4 Q2 **** 0
243 CCL4 1316 GROUP 4 Q2 **** 0
244 CCL4 1321 GROUP 4 Q2 **** 0
245 CCL4 1326 GROUP 4 Q2 **** 0
246 CCL4 1331 GROUP 4 Q2 **** 0
247 CCL4 1336 GROUP 4 Q2 **** 0
248 CCL4 1341 GROUP 4 Q2 **** 0
249 CCL4 1346 GROUP 4 Q2 **** 0
250 CCL4 1351 GROUP 4 Q2 **** 0
251 CCL4 1356 GROUP 4 Q2 **** 0
252 CCL4 1361 GROUP 4 Q2 **** 0
253 CCL4 1366 GROUP 4 Q2 **** 0
254 CCL4 1371 GROUP 4 Q2 **** 0
255 CCL4 1376 GROUP 4 Q2 **** 0
256 CCL4 1381 GROUP 4 Q2 **** 0
257 CCL4 1386 GROUP 4 Q2 **** 0
258 CCL4 1391 GROUP 4 Q2 **** 0
259 CCL4 1396 GROUP 4 Q2 **** 0
260 CCL4 1401 GROUP 4 Q2 **** 0
261 CCL4 1406 GROUP 4 Q2 **** 0
262 CCL4 1411 GROUP 4 Q2 **** 0
263 CCL4 1416 GROUP 4 Q2 **** 0
264 CCL4 1421 GROUP 4 Q2 **** 0
265 CCL4 1426 GROUP 4 Q2 **** 0
266 CCL4 1431 GROUP 4 Q2 **** 0
267 CCL4 1436 GROUP 4 Q2 **** 0
268 CCL4 1441 GROUP 4 Q2 **** 0
269 CCL4 1446 GROUP 4 Q2 **** 0
270 CCL4 1451 GROUP 4 Q2 **** 0
271 CCL4 1456 GROUP 4 Q2 **** 0
272 CCL4 1461 GROUP 4 Q2 **** 0
273 CCL4 1466 GROUP 4 Q2 **** 0
274 CCL4 1471 GROUP 4 Q2 **** 0
275 CCL4 1476 GROUP 4 Q2 **** 0
276 CCL4 1481 GROUP 4 Q2 **** 0
277 CCL4 1486 GROUP 4 Q2 **** 0
278 CCL4 1491 GROUP 4 Q2 **** 0
279 CCL4 1496 GROUP 4 Q2 **** 0
280 CCL4 1501 GROUP 4 Q2 **** 0
281 CCL4 1506 GROUP 4 Q2 **** 0
282 CCL4 1511 GROUP 4 Q2 **** 0
283 CCL4 1516 GROUP 4 Q2 **** 0
284 CCL4 1521 GROUP 4 Q2 **** 0
285 CCL4 1526 GROUP 4 Q2 **** 0
286 CCL4 1531 GROUP 4 Q2 **** 0
287 CCL4 1536 GROUP 4 Q2 **** 0
288 CCL4 1541 GROUP 4 Q2 **** 0
289 CCL4 1546 GROUP 4 Q2 **** 0
290 CCL4 1551 GROUP 4 Q2 **** 0
291 CCL4 1556 GROUP 4 Q2 **** 0
292 CCL4 1561 GROUP 4 Q2 **** 0
293 CCL4 1566 GROUP 4 Q2 **** 0
294 CCL4 1571 GROUP 4 Q2 **** 0
295 CCL4 1576 GROUP 4 Q2 **** 0
296 CCL4 1581 GROUP 4 Q2 **** 0
297 CCL4 1586 GROUP 4 Q2 **** 0
298 CCL4 1591 GROUP 4 Q2 **** 0
299 CCL4 1596 GROUP 4 Q2 **** 0
300 CCL4 1601 GROUP 4 Q2 **** 0
301 CCL4 1606 GROUP 4 Q2 **** 0
302 CCL4 1611 GROUP 4 Q2 **** 0
303 CCL4 1616 GROUP 4 Q2 **** 0
304 CCL4 1621 GROUP 4 Q2 **** 0
305 CCL4 1626 GROUP 4 Q2 **** 0
306 CCL4 1631 GROUP 4 Q2 **** 0
307 CCL4 1636 GROUP 4 Q2 **** 0
308 CCL4 1641 GROUP 4 Q2 **** 0
309 CCL4 1646 GROUP 4 Q2 **** 0
310 CCL4 1651 GROUP 4 Q2 **** 0
311 CCL4 1656 GROUP 4 Q2 **** 0
312 CCL4 1661 GROUP 4 Q2 **** 0
313 CCL4 1666 GROUP 4 Q2 **** 0
314 CCL4 1671 GROUP 4 Q2 **** 0
315 CCL4 1676 GROUP 4 Q2 **** 0
316 CCL4 1681 GROUP 4 Q2 **** 0
317 CCL4 1686 GROUP 4 Q2 **** 0
318 CCL4 1691 GROUP 4 Q2 **** 0
319 CCL4 1696 GROUP 4 Q2 **** 0
320 CCL4 1701 GROUP 4 Q2 **** 0
321 CCL4 1706 GROUP 4 Q2 **** 0
322 CCL4 1711 GROUP 4 Q2 **** 0
323 CCL4 1716 GROUP 4 Q2 **** 0
324 CCL4 1721 GROUP 4 Q2 **** 0
325 CCL4 1726 GROUP 4 Q2 **** 0
326 CCL4 1731 GROUP 4 Q2 **** 0
327 CCL4 1736 GROUP 4 Q2 **** 0
328 CCL4 1741 GROUP 4 Q2 **** 0
329 CCL4 1746 GROUP 4 Q2 **** 0
330 CCL4 1751 GROUP 4 Q2 **** 0
331 CCL4 1756 GROUP 4 Q2 **** 0
332 CCL4 1761 GROUP 4 Q2 **** 0
333 CCL4 1766 GROUP 4 Q2 **** 0
334 CCL4 1771 GROUP 4 Q2 **** 0
335 CCL4 1776 GROUP 4 Q2 **** 0
336 CCL4 1781 GROUP 4 Q2 **** 0
337 CCL4 1786 GROUP 4 Q2 **** 0
338 CCL4 1791 GROUP 4 Q2 **** 0
339 CCL4 1796 GROUP 4 Q2 **** 0
340 CCL4 1801 GROUP 4 Q2 **** 0
341 CCL4 1806 GROUP 4 Q2 **** 0
342 CCL4 1811 GROUP 4 Q2 **** 0
343 CCL4 1816 GROUP 4 Q2 **** 0
344 CCL4 1821 GROUP 4 Q2 **** 0
345 CCL4 1826 GROUP 4 Q2 **** 0
346 CCL4 1831 GROUP 4 Q2 **** 0
347 CCL4 1836 GROUP 4 Q2 **** 0
348 CCL4 1841 GROUP 4 Q2 **** 0
349 CCL4 1846 GROUP 4 Q2 **** 0
350 CCL4 1851 GROUP 4 Q2 **** 0
351 CCL4 1856 GROUP 4 Q2 **** 0
352 CCL4 1861 GROUP 4 Q2 **** 0
353 CCL4 1866 GROUP 4 Q2 **** 0
354 CCL4 1871 GROUP 4 Q2 **** 0
355 CCL4 1876 GROUP 4 Q2 **** 0
356 CCL4 1881 GROUP 4 Q2 **** 0
357 CCL4 1886 GROUP 4 Q2 **** 0
358 CCL4 1891 GROUP 4 Q2 **** 0
359 CCL4 1896 GROUP 4 Q2 **** 0
360 CCL4 1901 GROUP 4 Q2 **** 0
361 CCL4 1906 GROUP 4 Q2 **** 0
362 CCL4 1911 GROUP 4 Q2 **** 0
363 CCL4 1916 GROUP 4 Q2 **** 0
364 CCL4 1921 GROUP 4 Q2 **** 0
365 CCL4 1926 GROUP 4 Q2 **** 0
366 CCL4 1931 GROUP 4 Q2 **** 0
367 CCL4 1936 GROUP 4 Q2 **** 0
368 CCL4 1941 GROUP 4 Q2 **** 0
369 CCL4 1946 GROUP 4 Q2 **** 0
370 CCL4 1951 GROUP 4 Q2 **** 0
371 CCL4 1956 GROUP 4 Q2 **** 0
372 CCL4 1961 GROUP 4 Q2 **** 0
373 CCL4 1966 GROUP 4 Q2 **** 0
374 CCL4 1971 GROUP 4 Q2 **** 0
375 CCL4 1976 GROUP 4 Q2 **** 0
376 CCL4 1981 GROUP 4 Q2 **** 0
377 CCL4 1986 GROUP 4 Q2 **** 0
378 CCL4 1991 GROUP 4 Q2 **** 0
379 CCL4 1996 GROUP 4 Q2 **** 0
380 CCL4 2001 GROUP 4 Q2 **** 0
381 CCL4 2006 GROUP 4 Q2 **** 0
382 CCL4 2011 GROUP 4 Q2 **** 0
383 CCL4 2016 GROUP 4 Q2 **** 0
384 CCL4 2021 GROUP 4 Q2 **** 0
385 CCL4 2026 GROUP 4 Q2 **** 0
386 CCL4 2031 GROUP 4 Q2 **** 0
387 CCL4 2036 GROUP 4 Q2 **** 0
388 CCL4 2041 GROUP 4 Q2 **** 0
389 CCL4 2046 GROUP 4 Q2 **** 0
390 CCL4 2051 GROUP 4 Q2 **** 0
391 CCL4 2056 GROUP 4 Q2 **** 0
392 CCL4 2061 GROUP 4 Q2 **** 0
393 CCL4 2066 GROUP 4 Q2 **** 0
394 CCL4 2071 GROUP 4 Q2 **** 0
395 CCL4 2076 GROUP 4 Q2 **** 0
396 CCL4 2081 GROUP 4 Q2 **** 0
397 CCL4 2086 GROUP 4 Q2 **** 0
398 CCL4 2091 GROUP 4 Q2 **** 0
399 CCL4 2096 GROUP 4 Q2 **** 0
400 CCL4 2101 GROUP 4 Q2 **** 0
401 CCL4 2106 GROUP 4 Q2 **** 0
402 CCL4 2111 GROUP 4 Q2 **** 0
403 CCL4 2116 GROUP 4 Q2 **** 0
404 CCL4 2121 GROUP 4 Q2 **** 0
405 CCL4 2126 GROUP 4 Q2 **** 0
406 CCL4 2131 GROUP 4 Q2 **** 0
407 CCL4 2136 GROUP 4 Q2 **** 0
408 CCL4 2141 GROUP 4 Q2 **** 0
409 CCL4 2146 GROUP 4 Q2 **** 0
410 CCL4 2151 GROUP 4 Q2 **** 0
411 CCL4 2156 GROUP 4 Q2 **** 0
412 CCL4 2161 GROUP 4 Q2 **** 0
413 CCL4 2166 GROUP 4 Q2 **** 0
414 CCL4 2171 GROUP 4 Q2 **** 0
415 CCL4 2176 GROUP 4 Q2 **** 0
416 CCL4 2181 GROUP 4 Q2 **** 0
417 CCL4 2186 GROUP 4 Q2 **** 0
418 CCL4 2191 GROUP 4 Q2 **** 0
419 CCL4 2196 GROUP 4 Q2 **** 0
420 CCL4 2201 GROUP 4 Q2 **** 0
421 CCL4 2206 GROUP 4 Q2 **** 0
422 CCL4 2211 GROUP 4 Q2 **** 0
423 CCL4 2216 GROUP 4 Q2 **** 0
424 CCL4 2221 GROUP 4 Q2 **** 0
425 CCL4 2226 GROUP 4 Q2 **** 0
426 CCL4 2231 GROUP 4 Q2 **** 0
427 CCL4 2236 GROUP 4 Q2 **** 0
428 CCL4 2241 GROUP 4 Q2 **** 0
429 CCL4 2246 GROUP 4 Q2 **** 0
430 CCL4 2251 GROUP 4 Q2 **** 0
431 CCL4 2256 GROUP 4 Q2 **** 0
432 CCL4 2261 GROUP 4 Q2 **** 0
433 CCL4 2266 GROUP 4 Q2 **** 0
434 CCL4 2271 GROUP 4 Q2 **** 0
435 CCL4 2276 GROUP 4 Q2 **** 0
436 CCL4 2281 GROUP 4 Q2 **** 0
437 CCL4 2286 GROUP 4 Q2 **** 0
438 CCL4 2291 GROUP 4 Q2 **** 0
439 CCL4 2296 GROUP 4 Q2 **** 0
440 CCL4 2301 GROUP 4 Q2 **** 0
441 CCL4 2306 GROUP 4 Q2 **** 0
442 CCL4 2311 GROUP 4 Q2 **** 0
443 CCL4 2316 GROUP 4 Q2 **** 0
444 CCL4 2321 GROUP 4 Q2 **** 0
445 CCL4 2326 GROUP 4 Q2 **** 0
446 CCL4 2331 GROUP 4 Q2 **** 0
447 CCL4 2336 GROUP 4 Q2 **** 0
448 CCL4 2341 GROUP 4 Q2 **** 0
449 CCL4 2346 GROUP 4 Q2 **** 0
450 CCL4 2351 GROUP 4 Q2 **** 0
451 CCL4 2356 GROUP 4 Q2 **** 0
452 CCL4 2361 GROUP 4 Q2 **** 0
453 CCL4 2366 GROUP 4 Q2 **** 0
454 CCL4 2371 GROUP 4 Q2 **** 0
455 CCL4 2376 GROUP 4 Q2 **** 0
456 CCL4 2381 GROUP 4 Q2 **** 0
457 CCL4 2386 GROUP 4 Q2 **** 0
458 CCL4 2391 GROUP 4 Q2 **** 0
459 CCL4 2396 GROUP 4 Q2 **** 0
460 CCL4 2401 GROUP 4 Q2 **** 0
461 CCL4 2406 GROUP 4 Q2 **** 0
462 CCL4 2411 GROUP 4 Q2 **** 0
463 CCL4 2416 GROUP 4 Q2 **** 0
464 CCL4 2421 GROUP 4 Q2 **** 0
465 CCL4 2426 GROUP 4 Q2 **** 0
466 CCL4 2431 GROUP 4 Q2 **** 0
467 CCL4 2436 GROUP 4 Q2 **** 0
468 CCL4 2441 GROUP 4 Q2 **** 0
469 CCL4 2446 GROUP 4 Q2 **** 0
470 CCL4 2451 GROUP 4 Q2 **** 0
471 CCL4 2456 GROUP 4 Q2 **** 0
472 CCL4 2461 GROUP 4 Q2 **** 0
473 CCL4 2466 GROUP 4 Q2 **** 0
474 CCL4 2471 GROUP 4 Q2 **** 0
475 CCL4 2476 GROUP 4 Q2 **** 0
476 CCL4 2481 GROUP 4 Q2 **** 0
477 CCL4 2486 GROUP 4 Q2 **** 0
478 CCL4 2491 GROUP 4 Q2 **** 0
479 CCL4 2496 GROUP 4 Q2 **** 0
480 CCL4 2501 GROUP 4 Q2 **** 0
481 CCL4 2506 GROUP 4 Q2 **** 0
482 CCL4 2511 GROUP 4 Q2 **** 0
483 CCL4 2516 GROUP 4 Q2 **** 0
484 CCL4 2521 GROUP 4 Q2 **** 0
485 CCL4 2526 GROUP 4 Q2 **** 0
486 CCL4 2531 GROUP 4 Q2 **** 0
487 CCL4 2536 GROUP 4 Q2 **** 0
488 CCL4 2541 GROUP 4 Q2 **** 0
489 CCL4 2546 GROUP 4 Q2 **** 0
490 CCL4 2551 GROUP 4 Q2 **** 0
491 CCL4 2556 GROUP 4 Q2 **** 0
492 CCL4 2561 GROUP 4 Q2 **** 0
493 CCL4 2566 GROUP 4 Q2 **** 0

# MOE 2020.09 (io_trps.svl 2020.11)
