@<TRIPOS>MOLECULE
C27H37NOS2
109 110 1 0 0 
SMALL
USER_CHARGES


@<TRIPOS>ATOM
  1 C      -11.5221    -0.2317     1.2178 C.ar  1 <1>  -0.1500 
  2 H      -11.4413    -1.0044     0.4933 H     1 <1>   0.1500 
  3 C      -12.5765    -0.2442     2.1292 C.ar  1 <1>  -0.1500 
  4 C      -12.6880     0.7650     3.0761 C.ar  1 <1>  -0.1500 
  5 C      -11.7336     1.7966     3.1200 C.ar  1 <1>   0.0862 
  6 C      -11.8217     2.8276     4.1276 C.cat 1 <1>   0.7776 
  7 O      -11.2753     2.6020     5.2687 O.3   1 <1>  -0.9960 
  8 C      -12.4611     4.1054     3.9374 C.ar  1 <1>   0.0862 
  9 C      -13.0816     4.4261     2.7056 C.ar  1 <1>  -0.1500 
 10 C      -13.6653     5.6677     2.5140 C.ar  1 <1>  -0.1500 
 11 C      -13.6426     6.6100     3.5438 C.ar  1 <1>   0.0825 
 12 O      -14.2025     7.8140     3.2852 O.3   1 <1>  -0.3625 
 13 C      -14.1916     8.9511     4.1778 C.3   1 <1>   0.1200 
 14 C      -14.6868    10.2194     3.4812 C.3   1 <1>  -0.1600 
 15 C      -14.6149    11.4267     4.4276 C.3   1 <1>  -0.1600 
 16 C      -15.0519    12.7098     3.7085 C.3   1 <1>  -0.1600 
 17 C      -14.9510    13.9137     4.6551 C.3   1 <1>  -0.1600 
 18 C      -15.3392    15.2105     3.9323 C.3   1 <1>  -0.1600 
 19 C      -15.2130    16.4099     4.8812 C.3   1 <1>  -0.1600 
 20 C      -15.5653    17.7176     4.1598 C.3   1 <1>  -0.1600 
 21 C      -15.4126    18.9109     5.1140 C.3   1 <1>  -0.1600 
 22 C      -15.7453    20.2291     4.4112 C.3   1 <1>   0.0700 
 23 S      -15.5095    21.5773     5.5984 S.3   1 <1>  -0.4100 
 24 C      -13.0557     6.3121     4.7802 C.ar  1 <1>  -0.1500 
 25 C      -12.4714     5.0710     4.9726 C.ar  1 <1>  -0.1500 
 26 C      -10.6814     1.8071     2.1879 C.ar  1 <1>  -0.1500 
 27 C      -10.5782     0.7935     1.2450 C.ar  1 <1>  -0.1500 
 28 H      -13.2956    -1.0253     2.0917 H     1 <1>   0.1500 
 29 H      -13.4992     0.7537     3.7617 H     1 <1>   0.1500 
 30 H      -13.1050     3.7226     1.9115 H     1 <1>   0.1500 
 31 H      -14.1277     5.9182     1.5929 H     1 <1>   0.1500 
 32 H      -14.8317     8.7347     5.0344 H     1 <1>   0.0800 
 33 H      -13.1702     9.1177     4.5230 H     1 <1>   0.0800 
 34 H      -14.0626    10.4014     2.6049 H     1 <1>   0.0800 
 35 H      -15.7156    10.0658     3.1523 H     1 <1>   0.0800 
 36 H      -15.2658    11.2539     5.2872 H     1 <1>   0.0800 
 37 H      -13.5889    11.5474     4.7814 H     1 <1>   0.0800 
 38 H      -14.4074    12.8759     2.8428 H     1 <1>   0.0800 
 39 H      -16.0825    12.6026     3.3644 H     1 <1>   0.0800 
 40 H      -15.6159    13.7611     5.5076 H     1 <1>   0.0800 
 41 H      -13.9258    14.0000     5.0206 H     1 <1>   0.0800 
 42 H      -14.6793    15.3570     3.0749 H     1 <1>   0.0800 
 43 H      -16.3685    15.1347     3.5763 H     1 <1>   0.0800 
 44 H      -15.8857    16.2716     5.7301 H     1 <1>   0.0800 
 45 H      -14.1880    16.4687     5.2530 H     1 <1>   0.0800 
 46 H      -14.8982    17.8495     3.3056 H     1 <1>   0.0800 
 47 H      -16.5951    17.6673     3.8006 H     1 <1>   0.0800 
 48 H      -16.0816    18.7855     5.9670 H     1 <1>   0.0800 
 49 H      -14.3856    18.9558     5.4803 H     1 <1>   0.0800 
 50 H      -15.0819    20.3725     3.5572 H     1 <1>   0.0800 
 51 H      -16.7816    20.2166     4.0711 H     1 <1>   0.0800 
 52 H      -15.8440    22.5731     4.7719 H     1 <1>   0.1800 
 53 H      -13.0563     7.0256     5.5626 H     1 <1>   0.1500 
 54 H      -12.0245     4.8476     5.9090 H     1 <1>   0.1500 
 55 H       -9.9629     2.5894     2.1973 H     1 <1>   0.1500 
 56 H       -9.7847     0.7976     0.5389 H     1 <1>   0.1500 
 57 C        1.3968    11.1628    -0.5776 C.2   1 <1>   0.6590 
 58 H132    -1.8303    10.2607     1.9378 H     1 <1>   0.0800 
 59 C1       0.5684    10.5639     0.5554 C.3   1 <1>  -0.0990 
 60 H131    -2.5944     9.1083     0.8378 H     1 <1>   0.0800 
 61 C132   -10.5353     1.4390     5.7100 C.3   1 <1>   0.9660 
 62 H132   -10.7952     0.5672     5.1051 H     1 <1>   0.0800 
 63 H11      0.3725    11.3535     1.2797 H     1 <1>   0.0800 
 64 H12      1.1787     9.8024     1.0376 H     1 <1>   0.0800 
 65 C13     -0.7660     9.9472     0.0904 C.3   1 <1>  -0.1600 
 66 H131    -1.3296    10.7081    -0.4540 H     1 <1>   0.0800 
 67 C132    -1.6380     9.4360     1.2499 C.3   1 <1>  -0.1600 
 68 C133    -0.9988     8.2600     2.0094 C.3   1 <1>  -0.1600 
 69 C131    -1.9453     7.6146     3.0347 C.3   1 <1>  -0.1600 
 70 H131    -2.8477     7.2664     2.5289 H     1 <1>   0.0800 
 71 C132    -2.3369     8.5650     4.1794 C.3   1 <1>  -0.1600 
 72 H131    -2.9492     9.3731     3.7782 H     1 <1>   0.0800 
 73 H132    -1.4365     9.0027     4.6136 H     1 <1>   0.0800 
 74 C133    -3.1375     7.8800     5.2999 C.3   1 <1>  -0.0218 
 75 H131    -3.4956     8.6345     5.9876 H     1 <1>   0.0800 
 76 C132    -2.3378     6.8533     6.0787 C.2   1 <1>  -0.2882 
 77 H132    -1.2862     6.9107     5.9486 H     1 <1>   0.1500 
 78 C133    -2.8700     5.9297     6.8955 C.2   1 <1>  -0.2882 
 79 H131    -2.2459     5.2370     7.4019 H     1 <1>   0.1500 
 80 C132    -4.3496     5.7606     7.1763 C.3   1 <1>  -0.0218 
 81 C131    -4.9504     4.5555     6.4386 C.3   1 <1>  -0.1600 
 82 H131    -4.8007     4.6996     5.3670 H     1 <1>   0.0800 
 83 C132    -6.4461     4.3614     6.7234 C.3   1 <1>  -0.1600 
 84 H131    -6.9912     5.2466     6.3894 H     1 <1>   0.0800 
 85 H132    -6.5924     4.2446     7.7992 H     1 <1>   0.0800 
 86 C133    -6.9829     3.1207     5.9966 C.3   1 <1>  -0.1600 
 87 H131    -6.8282     3.2412     4.9223 H     1 <1>   0.0800 
 88 C132    -8.4785     2.9343     6.2877 C.3   1 <1>  -0.1600 
 89 H131    -9.0205     3.8194     5.9457 H     1 <1>   0.0800 
 90 H132    -8.6169     2.8381     7.3664 H     1 <1>   0.0800 
 91 C133    -9.0224     1.6807     5.5691 C.3   1 <1>  -0.1600 
 92 H131    -8.8029     1.7739     4.5063 H     1 <1>   0.0800 
 93 C133   -10.9263     1.1236     7.1477 C.3   1 <1>  -0.2400 
 94 H131   -10.3465     0.2794     7.5189 H     1 <1>   0.0800 
 95 H132   -11.9865     0.8770     7.1802 H     1 <1>   0.0800 
 96 H133   -10.7555     1.9962     7.7764 H     1 <1>   0.0800 
 97 H133    -8.4939     0.8018     5.9392 H     1 <1>   0.0800 
 98 H133    -6.4305     2.2412     6.3348 H     1 <1>   0.0800 
 99 H133    -4.4052     3.6602     6.7423 H     1 <1>   0.0800 
100 H132    -4.8991     6.6569     6.9254 H     1 <1>   0.0800 
101 H133    -4.4896     5.6394     8.2424 H     1 <1>   0.0800 
102 H133    -4.0222     7.4233     4.8765 H     1 <1>   0.0800 
103 H133    -1.4422     6.7420     3.4548 H     1 <1>   0.0800 
104 H132    -0.1008     8.5973     2.5287 H     1 <1>   0.0800 
105 H133    -0.7063     7.4938     1.2889 H     1 <1>   0.0800 
106 H133    -0.5626     9.1272    -0.6015 H     1 <1>   0.0800 
107 O2       1.0568    11.2648    -1.7459 O.2   1 <1>  -0.5700 
108 O3       2.6118    11.6046    -0.2086 O.3   1 <1>  -0.6500 
109 H3       2.9956    11.9395    -1.0196 H     1 <1>   0.5000 
@<TRIPOS>BOND
  1   1   2  1   
  2   1   3  ar  
  3   1  27  ar  
  4   3   4  ar  
  5   3  28  1   
  6   4   5  ar  
  7   4  29  1   
  8   5   6  1   
  9   5  26  ar  
 10   6   7  1   
 11   6   8  1   
 12   7  61  1   
 13   8   9  ar  
 14   8  25  ar  
 15   9  10  ar  
 16   9  30  1   
 17  10  11  ar  
 18  10  31  1   
 19  11  12  1   
 20  11  24  ar  
 21  12  13  1   
 22  13  14  1   
 23  13  32  1   
 24  13  33  1   
 25  14  15  1   
 26  14  34  1   
 27  14  35  1   
 28  15  16  1   
 29  15  36  1   
 30  15  37  1   
 31  16  17  1   
 32  16  38  1   
 33  16  39  1   
 34  17  18  1   
 35  17  40  1   
 36  17  41  1   
 37  18  19  1   
 38  18  42  1   
 39  18  43  1   
 40  19  20  1   
 41  19  44  1   
 42  19  45  1   
 43  20  21  1   
 44  20  46  1   
 45  20  47  1   
 46  21  22  1   
 47  21  48  1   
 48  21  49  1   
 49  22  23  1   
 50  22  50  1   
 51  22  51  1   
 52  23  52  1   
 53  24  25  ar  
 54  24  53  1   
 55  25  54  1   
 56  26  27  ar  
 57  26  55  1   
 58  27  56  1   
 59  57  59  1   
 60  57 107  2   
 61  57 108  1   
 62  58  67  1   
 63  59  63  1   
 64  59  64  1   
 65  59  65  1   
 66  60  67  1   
 67  61  62  1   
 68  61  91  1   
 69  61  93  1   
 70  65  66  1   
 71  65  67  1   
 72  65 106  1   
 73  67  68  1   
 74  68  69  1   
 75  68 104  1   
 76  68 105  1   
 77  69  70  1   
 78  69  71  1   
 79  69 103  1   
 80  71  72  1   
 81  71  73  1   
 82  71  74  1   
 83  74  75  1   
 84  74  76  1   
 85  74 102  1   
 86  76  77  1   
 87  76  78  2   
 88  78  79  1   
 89  78  80  1   
 90  80  81  1   
 91  80 100  1   
 92  80 101  1   
 93  81  82  1   
 94  81  83  1   
 95  81  99  1   
 96  83  84  1   
 97  83  85  1   
 98  83  86  1   
 99  86  87  1   
100  86  88  1   
101  86  98  1   
102  88  89  1   
103  88  90  1   
104  88  91  1   
105  91  92  1   
106  91  97  1   
107  93  94  1   
108  93  95  1   
109  93  96  1   
110 108 109  1   
@<TRIPOS>SUBSTRUCTURE
  1 ****  24 GROUP 4 **** **** 0

# MOE 2020.09 (io_trps.svl 2020.11)
