@<TRIPOS>MOLECULE
C27H37NOS2
3014 2434 582 0 0 
SMALL
USER_CHARGES


@<TRIPOS>ATOM
   1 C      -13.5164     0.8513     0.7259 C.ar    1 <1>   -0.1317 
   2 H      -14.1963     0.3937     0.0548 H       1 <1>    0.1683 
   3 C      -13.2066     0.2387     1.9352 C.ar    1 <1>   -0.1317 
   4 C      -12.3102     0.8400     2.8160 C.ar    1 <1>   -0.1317 
   5 C      -11.7114     2.0659     2.5020 C.ar    1 <1>   -0.1251 
   6 C      -10.7387     2.8203     3.4314 C.3     1 <1>    0.2315 
   7 O       -9.6170     3.1302     2.5600 O.3     1 <1>   -0.9234 
   8 C      -11.3714     4.1675     3.8361 C.ar    1 <1>   -0.1251 
   9 C      -12.6296     4.1828     4.4470 C.ar    1 <1>   -0.1317 
  10 C      -13.2366     5.3824     4.8051 C.ar    1 <1>   -0.1317 
  11 C      -12.5932     6.5847     4.5373 C.ar    1 <1>    0.1020 
  12 O      -13.2456     7.7424     4.9051 O.3     1 <1>   -0.3481 
  13 C      -12.8032     9.0757     4.5897 C.3     1 <1>    0.1388 
  14 C      -13.8297    10.1144     5.0484 C.3     1 <1>   -0.1419 
  15 C      -13.3665    11.5492     4.7483 C.3     1 <1>   -0.1419 
  16 C      -14.4282    12.5641     5.1995 C.3     1 <1>   -0.1419 
  17 C      -13.9612    14.0030     4.9299 C.3     1 <1>   -0.1419 
  18 C      -15.0306    15.0126     5.3747 C.3     1 <1>   -0.1419 
  19 C      -14.5565    16.4543     5.1353 C.3     1 <1>   -0.1419 
  20 C      -15.6293    17.4601     5.5806 C.3     1 <1>   -0.1419 
  21 C      -15.1377    18.9032     5.3861 C.3     1 <1>   -0.1419 
  22 C      -16.1960    19.9177     5.8314 C.3     1 <1>    0.0897 
  23 S      -15.5095    21.5773     5.5984 S.3     1 <1>   -0.3965 
  24 C      -11.3463     6.5971     3.9125 C.ar    1 <1>   -0.1317 
  25 C      -10.7476     5.3908     3.5619 C.ar    1 <1>   -0.1317 
  26 C      -12.0297     2.6622     1.2805 C.ar    1 <1>   -0.1317 
  27 C      -12.9238     2.0648     0.3977 C.ar    1 <1>   -0.1317 
  28 H      -13.6500    -0.6898     2.1865 H       1 <1>    0.1683 
  29 H      -12.0841     0.3500     3.7227 H       1 <1>    0.1683 
  30 H      -13.1323     3.2687     4.6246 H       1 <1>    0.1683 
  31 H      -14.1876     5.3868     5.2691 H       1 <1>    0.1683 
  32 H      -11.8509     9.2550     5.0914 H       1 <1>    0.0996 
  33 H      -12.6663     9.1519     3.5094 H       1 <1>    0.0996 
  34 H      -14.7735     9.9146     4.5376 H       1 <1>    0.0996 
  35 H      -13.9879     9.9939     6.1218 H       1 <1>    0.0996 
  36 H      -12.4304    11.7458     5.2762 H       1 <1>    0.0996 
  37 H      -13.1946    11.6598     3.6749 H       1 <1>    0.0996 
  38 H      -15.3595    12.3776     4.6593 H       1 <1>    0.0996 
  39 H      -14.6164    12.4398     6.2687 H       1 <1>    0.0996 
  40 H      -13.0350    14.1915     5.4779 H       1 <1>    0.0996 
  41 H      -13.7667    14.1287     3.8623 H       1 <1>    0.0996 
  42 H      -15.9512    14.8354     4.8137 H       1 <1>    0.0996 
  43 H      -15.2390    14.8732     6.4381 H       1 <1>    0.0996 
  44 H      -13.6376    16.6308     5.6996 H       1 <1>    0.0996 
  45 H      -14.3445    16.5969     4.0730 H       1 <1>    0.0996 
  46 H      -16.5378    17.3029     4.9943 H       1 <1>    0.0996 
  47 H      -15.8611    17.2973     6.6359 H       1 <1>    0.0996 
  48 H      -14.2296    19.0639     5.9711 H       1 <1>    0.0996 
  49 H      -14.9046    19.0759     4.3333 H       1 <1>    0.0996 
  50 H      -17.0990    19.8056     5.2287 H       1 <1>    0.0996 
  51 H      -16.4385    19.7673     6.8849 H       1 <1>    0.0996 
  52 H      -16.5698    22.2633     6.0398 H       1 <1>    0.1977 
  53 H      -10.8522     7.5047     3.6951 H       1 <1>    0.1683 
  54 H       -9.8080     5.3929     3.0697 H       1 <1>    0.1683 
  55 H      -11.5653     3.5823     1.0296 H       1 <1>    0.1683 
  56 H      -13.1447     2.5368    -0.5242 H       1 <1>    0.1683 
  57 C        1.3968    11.1628    -0.5776 C.2     1 <1>    0.6679 
  58 H132    -2.0176    10.1700     1.6162 H       1 <1>    0.0996 
  59 C1       0.4963    10.7479     0.5820 C.3     1 <1>   -0.0798 
  60 H131    -2.1924     8.5442     0.9524 H       1 <1>    0.0996 
  61 C132   -10.1065     1.9706     4.6018 C.3     1 <1>   -0.0604 
  62 H132    -9.9918     0.9810     4.1613 H       1 <1>    0.0996 
  63 H11     -0.0724    11.6254     0.8879 H       1 <1>    0.0996 
  64 H12      1.1422    10.4536     1.4070 H       1 <1>    0.0996 
  65 C13     -0.4717     9.5999     0.2267 C.3     1 <1>   -0.1419 
  66 H131    -1.0372     9.8901    -0.6627 H       1 <1>    0.0996 
  67 C132    -1.4717     9.2639     1.3480 C.3     1 <1>   -0.1419 
  68 C133    -0.8056     8.6566     2.5979 C.3     1 <1>   -0.1419 
  69 C131    -1.8223     8.1641     3.6451 C.3     1 <1>   -0.1419 
  70 H131    -2.5232     7.4711     3.1741 H       1 <1>    0.0996 
  71 C132    -2.6023     9.3089     4.3185 C.3     1 <1>   -0.1419 
  72 H131    -3.1721     9.8515     3.5635 H       1 <1>    0.0996 
  73 H132    -1.8988    10.0073     4.7763 H       1 <1>    0.0996 
  74 C133    -3.5956     8.8369     5.3959 C.3     1 <1>   -0.0012 
  75 H131    -4.1717     9.6877     5.7371 H       1 <1>    0.0996 
  76 C132    -2.9391     8.1845     6.5985 C.2     1 <1>   -0.2725 
  77 H132    -1.9060     8.3983     6.7211 H       1 <1>    0.1683 
  78 C133    -3.5784     7.4058     7.4871 C.2     1 <1>   -0.2725 
  79 H131    -3.0518     6.9775     8.3045 H       1 <1>    0.1683 
  80 C132    -5.0523     7.0534     7.4336 C.3     1 <1>   -0.0012 
  81 C131    -5.3062     5.6843     6.7853 C.3     1 <1>   -0.1419 
  82 H131    -4.8397     5.6773     5.7982 H       1 <1>    0.0996 
  83 C132    -6.7993     5.3568     6.6357 C.3     1 <1>   -0.1419 
  84 H131    -7.2743     6.1160     6.0101 H       1 <1>    0.0996 
  85 H132    -7.2790     5.3623     7.6169 H       1 <1>    0.0996 
  86 C133    -6.9920     3.9803     5.9842 C.3     1 <1>   -0.1419 
  87 H131    -6.4669     3.9545     5.0261 H       1 <1>    0.0996 
  88 C132    -8.4811     3.7052     5.7324 C.3     1 <1>   -0.1419 
  89 H131    -8.8738     4.4810     5.0802 H       1 <1>    0.0996 
  90 H132    -9.0273     3.7216     6.6751 H       1 <1>    0.0996 
  91 C133    -8.6635     2.3476     5.0355 C.3     1 <1>   -0.1419 
  92 H131    -8.0304     2.3259     4.1459 H       1 <1>    0.0996 
  93 C133   -10.9952     1.8402     5.8586 C.3     1 <1>   -0.2234 
  94 H131   -10.5381     1.1497     6.5668 H       1 <1>    0.0996 
  95 H132   -11.9814     1.4660     5.5963 H       1 <1>    0.0996 
  96 H133   -11.1149     2.8125     6.3347 H       1 <1>    0.0996 
  97 H133    -8.2904     1.5653     5.6959 H       1 <1>    0.0996 
  98 H133    -6.5807     3.2031     6.6311 H       1 <1>    0.0996 
  99 H133    -4.8240     4.9155     7.3923 H       1 <1>    0.0996 
 100 H132    -5.6102     7.8183     6.9111 H       1 <1>    0.0996 
 101 H133    -5.4554     7.0602     8.4384 H       1 <1>    0.0996 
 102 H133    -4.3120     8.1622     4.9458 H       1 <1>    0.0996 
 103 H133    -1.2783     7.6094     4.4130 H       1 <1>    0.0996 
 104 H132    -0.1434     9.3885     3.0634 H       1 <1>    0.0996 
 105 H133    -0.1974     7.8030     2.2893 H       1 <1>    0.0996 
 106 H133     0.1045     8.7082    -0.0326 H       1 <1>    0.0996 
 107 O2       1.4583    10.6141    -1.6652 O.2     1 <1>   -0.5594 
 108 O3       2.1715    12.2320    -0.3292 O.3     1 <1>   -0.6409 
 109 H3       2.6677    12.3656    -1.1387 H       1 <1>    0.5119 
 110 CL      13.8863   -15.7604   -13.2255 Cl      2 CCL4  -0.0812 
 111 C       13.6520   -14.1189   -12.5613 C.3     2 CCL4   0.3246 
 112 CL      12.1572   -13.4920   -13.2695 Cl      2 CCL4  -0.0812 
 113 CL      15.0749   -13.0624   -12.7838 Cl      2 CCL4  -0.0812 
 114 CL      13.4403   -14.3297   -10.7979 Cl      2 CCL4  -0.0812 
 115 CL     -22.0450    33.7353   -16.3663 Cl      3 CCL4  -0.0812 
 116 C      -21.5436    33.7351   -14.7458 C.3     3 CCL4   0.3246 
 117 CL     -21.8801    32.2395   -13.9611 Cl      3 CCL4  -0.0812 
 118 CL     -22.1018    35.0905   -13.8597 Cl      3 CCL4  -0.0812 
 119 CL     -19.7516    33.8616   -14.7681 Cl      3 CCL4  -0.0812 
 120 CL     -29.8919    36.0418   -11.3318 Cl      4 CCL4  -0.0812 
 121 C      -29.6056    34.2869   -11.2046 C.3     4 CCL4   0.3246 
 122 CL     -29.8504    33.7717    -9.5138 Cl      4 CCL4  -0.0812 
 123 CL     -28.0665    33.6875   -11.7681 Cl      4 CCL4  -0.0812 
 124 CL     -30.8597    33.4737   -12.1725 Cl      4 CCL4  -0.0812 
 125 CL     -11.7712    -4.2786     4.1149 Cl      5 CCL4  -0.0812 
 126 C      -11.0552    -4.5527     2.4943 C.3     5 CCL4   0.3246 
 127 CL     -10.4854    -2.8759     2.0185 Cl      5 CCL4  -0.0812 
 128 CL     -12.2665    -5.2542     1.3952 Cl      5 CCL4  -0.0812 
 129 CL      -9.6652    -5.5721     2.8251 Cl      5 CCL4  -0.0812 
 130 CL     -28.4425    -6.5260   -11.1494 Cl      6 CCL4  -0.0812 
 131 C      -27.9083    -4.9646   -11.8348 C.3     6 CCL4   0.3246 
 132 CL     -28.8365    -3.5496   -11.3011 Cl      6 CCL4  -0.0812 
 133 CL     -27.7617    -4.9544   -13.5823 Cl      6 CCL4  -0.0812 
 134 CL     -26.2748    -4.6989   -11.1777 Cl      6 CCL4  -0.0812 
 135 CL     -12.8958    -9.9068   -14.0400 Cl      7 CCL4  -0.0812 
 136 C      -12.9411    -8.2866   -14.7223 C.3     7 CCL4   0.3246 
 137 CL     -12.6960    -7.0123   -13.3651 Cl      7 CCL4  -0.0812 
 138 CL     -14.5565    -7.8909   -15.3774 Cl      7 CCL4  -0.0812 
 139 CL     -11.7747    -7.8610   -15.9781 Cl      7 CCL4  -0.0812 
 140 CL     -20.9157    -3.7937   -15.4070 Cl      8 CCL4  -0.0812 
 141 C      -22.7145    -4.2092   -15.4113 C.3     8 CCL4   0.3246 
 142 CL     -22.9249    -5.9086   -16.0191 Cl      8 CCL4  -0.0812 
 143 CL     -23.5576    -3.0876   -16.4624 Cl      8 CCL4  -0.0812 
 144 CL     -23.3855    -3.9262   -13.7467 Cl      8 CCL4  -0.0812 
 145 CL     -28.9989    -6.1350    23.5544 Cl      9 CCL4  -0.0812 
 146 C      -27.4773    -5.8459    22.6965 C.3     9 CCL4   0.3246 
 147 CL     -27.1411    -4.0740    23.1356 Cl      9 CCL4  -0.0812 
 148 CL     -27.7117    -5.9137    20.9461 Cl      9 CCL4  -0.0812 
 149 CL     -26.1170    -6.9318    23.0796 Cl      9 CCL4  -0.0812 
 150 CL     -26.9918    33.3056     4.0825 Cl     10 CCL4  -0.0812 
 151 C      -27.2978    33.4557     2.3773 C.3    10 CCL4   0.3246 
 152 CL     -26.2274    34.6239     1.5943 Cl     10 CCL4  -0.0812 
 153 CL     -28.9682    33.9286     2.0294 Cl     10 CCL4  -0.0812 
 154 CL     -27.1331    31.8335     1.5612 Cl     10 CCL4  -0.0812 
 155 CL      13.4949    34.8959     4.4712 Cl     11 CCL4  -0.0812 
 156 C       14.1972    33.8980     3.1153 C.3    11 CCL4   0.3246 
 157 CL      15.5809    33.0621     3.7896 Cl     11 CCL4  -0.0812 
 158 CL      14.7521    35.0752     1.9451 Cl     11 CCL4  -0.0812 
 159 CL      13.0808    32.7302     2.5040 Cl     11 CCL4  -0.0812 
 160 CL     -26.0179    35.2118    22.7676 Cl     12 CCL4  -0.0812 
 161 C      -26.4039    33.7566    23.8156 C.3    12 CCL4   0.3246 
 162 CL     -28.1075    33.7820    24.4261 Cl     12 CCL4  -0.0812 
 163 CL     -25.2775    33.6121    25.2142 Cl     12 CCL4  -0.0812 
 164 CL     -26.0207    32.3532    22.7866 Cl     12 CCL4  -0.0812 
 165 CL     -33.1871    31.7372    21.9545 Cl     13 CCL4  -0.0812 
 166 C      -31.9418    32.6708    22.7904 C.3    13 CCL4   0.3246 
 167 CL     -32.1318    32.2156    24.5877 Cl     13 CCL4  -0.0812 
 168 CL     -32.3157    34.4653    22.8946 Cl     13 CCL4  -0.0812 
 169 CL     -30.4307    32.1646    22.2006 Cl     13 CCL4  -0.0812 
 170 CL      15.5338    -4.2017   -11.9472 Cl     14 CCL4  -0.0812 
 171 C       14.1768    -4.9645   -11.0578 C.3    14 CCL4   0.3246 
 172 CL      12.6580    -4.3819   -11.8201 Cl     14 CCL4  -0.0812 
 173 CL      14.1859    -4.3731    -9.4072 Cl     14 CCL4  -0.0812 
 174 CL      14.4452    -6.7019   -11.1529 Cl     14 CCL4  -0.0812 
 175 CL     -23.7953    31.1759    -6.7721 Cl     15 CCL4  -0.0812 
 176 C      -22.8944    32.2487    -5.6983 C.3    15 CCL4   0.3246 
 177 CL     -21.7345    33.3360    -6.5068 Cl     15 CCL4  -0.0812 
 178 CL     -21.9224    31.1640    -4.4504 Cl     15 CCL4  -0.0812 
 179 CL     -24.0004    33.2142    -4.7187 Cl     15 CCL4  -0.0812 
 180 CL     -24.8725   -16.9543    -7.9537 Cl     16 CCL4  -0.0812 
 181 C      -26.4465   -16.6767    -7.0842 C.3    16 CCL4   0.3246 
 182 CL     -26.1733   -15.7287    -5.6518 Cl     16 CCL4  -0.0812 
 183 CL     -27.1478   -18.2939    -6.6387 Cl     16 CCL4  -0.0812 
 184 CL     -27.4764   -15.7947    -8.1359 Cl     16 CCL4  -0.0812 
 185 CL     -26.5648    -7.2507    -1.9818 Cl     17 CCL4  -0.0812 
 186 C      -27.1539    -5.6408    -1.2638 C.3    17 CCL4   0.3246 
 187 CL     -27.0234    -5.8866     0.4818 Cl     17 CCL4  -0.0812 
 188 CL     -28.7346    -5.0621    -1.6594 Cl     17 CCL4  -0.0812 
 189 CL     -25.9258    -4.3548    -1.6853 Cl     17 CCL4  -0.0812 
 190 CL     -18.4878   -15.8616    -4.1216 Cl     18 CCL4  -0.0812 
 191 C      -17.8905   -17.0640    -3.0150 C.3    18 CCL4   0.3246 
 192 CL     -18.6486   -18.6336    -3.4192 Cl     18 CCL4  -0.0812 
 193 CL     -18.3522   -16.6568    -1.3124 Cl     18 CCL4  -0.0812 
 194 CL     -16.1268   -17.2737    -3.0280 Cl     18 CCL4  -0.0812 
 195 CL     -12.3979   -16.0168    -1.7158 Cl     19 CCL4  -0.0812 
 196 C      -11.0487   -16.8225    -0.8158 C.3    19 CCL4   0.3246 
 197 CL      -9.4510   -16.4321    -1.6385 Cl     19 CCL4  -0.0812 
 198 CL     -11.2999   -18.5810    -0.8786 Cl     19 CCL4  -0.0812 
 199 CL     -11.0424   -16.1366     0.8490 Cl     19 CCL4  -0.0812 
 200 CL      -9.8933    -7.5567    -4.8442 Cl     20 CCL4  -0.0812 
 201 C       -9.4473    -6.7101    -6.3344 C.3    20 CCL4   0.3246 
 202 CL      -8.7707    -5.1168    -5.8417 Cl     20 CCL4  -0.0812 
 203 CL     -11.0426    -6.4532    -7.0842 Cl     20 CCL4  -0.0812 
 204 CL      -8.3757    -7.5545    -7.4935 Cl     20 CCL4  -0.0812 
 205 CL     -24.8298   -12.5920   -13.5199 Cl     21 CCL4  -0.0812 
 206 C      -25.5202   -13.7222   -12.3235 C.3    21 CCL4   0.3246 
 207 CL     -26.6562   -14.8175   -13.3223 Cl     21 CCL4  -0.0812 
 208 CL     -26.4729   -12.6734   -11.1725 Cl     21 CCL4  -0.0812 
 209 CL     -24.3514   -14.7912   -11.5591 Cl     21 CCL4  -0.0812 
 210 CL     -25.5261    -8.5897    -6.1383 Cl     22 CCL4  -0.0812 
 211 C      -25.9142    -8.9053    -7.8952 C.3    22 CCL4   0.3246 
 212 CL     -27.1132   -10.3267    -7.9119 Cl     22 CCL4  -0.0812 
 213 CL     -24.3710    -9.4925    -8.6581 Cl     22 CCL4  -0.0812 
 214 CL     -26.5582    -7.5240    -8.6449 Cl     22 CCL4  -0.0812 
 215 CL     -29.4399    -9.8465   -10.7224 Cl     23 CCL4  -0.0812 
 216 C      -30.5645   -10.6376    -9.6260 C.3    23 CCL4   0.3246 
 217 CL     -30.1654   -12.3189    -9.3698 Cl     23 CCL4  -0.0812 
 218 CL     -32.2087   -10.5152   -10.3725 Cl     23 CCL4  -0.0812 
 219 CL     -30.5734    -9.8777    -8.0017 Cl     23 CCL4  -0.0812 
 220 CL      -9.4037   -12.9578     0.0675 Cl     24 CCL4  -0.0812 
 221 C       -9.4858   -12.1962     1.6216 C.3    24 CCL4   0.3246 
 222 CL     -10.3056   -13.2587     2.8245 Cl     24 CCL4  -0.0812 
 223 CL     -10.3696   -10.7139     1.4857 Cl     24 CCL4  -0.0812 
 224 CL      -7.8212   -11.9088     2.2174 Cl     24 CCL4  -0.0812 
 225 CL     -24.7124    -9.6144   -15.0851 Cl     25 CCL4  -0.0812 
 226 C      -25.7039    -8.7841   -13.8061 C.3    25 CCL4   0.3246 
 227 CL     -25.6261    -9.4622   -12.2086 Cl     25 CCL4  -0.0812 
 228 CL     -27.4297    -8.6888   -14.1889 Cl     25 CCL4  -0.0812 
 229 CL     -25.0939    -7.0886   -13.7715 Cl     25 CCL4  -0.0812 
 230 CL     -30.3075    -4.1802    -5.9451 Cl     26 CCL4  -0.0812 
 231 C      -29.7622    -5.8713    -6.2369 C.3    26 CCL4   0.3246 
 232 CL     -30.7223    -6.9701    -5.2596 Cl     26 CCL4  -0.0812 
 233 CL     -28.0975    -6.1463    -5.8364 Cl     26 CCL4  -0.0812 
 234 CL     -29.9537    -6.3038    -7.9151 Cl     26 CCL4  -0.0812 
 235 CL     -32.1440    -7.8586   -16.7233 Cl     27 CCL4  -0.0812 
 236 C      -32.5464    -7.9861   -14.9144 C.3    27 CCL4   0.3246 
 237 CL     -33.3567    -9.5998   -14.7279 Cl     27 CCL4  -0.0812 
 238 CL     -33.8704    -6.8264   -14.5760 Cl     27 CCL4  -0.0812 
 239 CL     -31.1080    -7.9732   -13.9575 Cl     27 CCL4  -0.0812 
 240 CL     -29.7473   -14.4014   -14.9706 Cl     28 CCL4  -0.0812 
 241 C      -29.4866   -12.6889   -15.0657 C.3    28 CCL4   0.3246 
 242 CL     -30.6086   -11.8341   -16.0299 Cl     28 CCL4  -0.0812 
 243 CL     -27.7632   -12.4913   -15.8370 Cl     28 CCL4  -0.0812 
 244 CL     -29.2478   -12.0070   -13.4071 Cl     28 CCL4  -0.0812 
 245 CL     -11.1590   -16.1013    -7.6914 Cl     29 CCL4  -0.0812 
 246 C      -12.1212   -15.3103    -6.4298 C.3    29 CCL4   0.3246 
 247 CL     -11.0897   -14.6948    -5.1276 Cl     29 CCL4  -0.0812 
 248 CL     -13.3366   -16.2921    -5.6922 Cl     29 CCL4  -0.0812 
 249 CL     -12.8309   -13.7095    -7.1870 Cl     29 CCL4  -0.0812 
 250 CL     -10.3891   -10.5804    -9.0113 Cl     30 CCL4  -0.0812 
 251 C      -11.2025    -9.9563   -10.3672 C.3    30 CCL4   0.3246 
 252 CL     -12.7829   -10.7760   -10.4733 Cl     30 CCL4  -0.0812 
 253 CL     -10.4740   -10.2740   -11.8681 Cl     30 CCL4  -0.0812 
 254 CL     -11.4215    -8.2568   -10.0706 Cl     30 CCL4  -0.0812 
 255 CL     -21.2857    -9.5548    -1.7074 Cl     31 CCL4  -0.0812 
 256 C      -22.8705    -9.5644    -0.9062 C.3    31 CCL4   0.3246 
 257 CL     -23.0074   -10.7740     0.4104 Cl     31 CCL4  -0.0812 
 258 CL     -24.2169    -9.8008    -2.1450 Cl     31 CCL4  -0.0812 
 259 CL     -23.2289    -7.8816    -0.3528 Cl     31 CCL4  -0.0812 
 260 CL     -23.9415   -11.7527    -5.6585 Cl     32 CCL4  -0.0812 
 261 C      -23.2838   -12.9659    -6.7835 C.3    32 CCL4   0.3246 
 262 CL     -24.4262   -13.3780    -8.0331 Cl     32 CCL4  -0.0812 
 263 CL     -22.7895   -14.3810    -5.9502 Cl     32 CCL4  -0.0812 
 264 CL     -21.9441   -12.2554    -7.6629 Cl     32 CCL4  -0.0812 
 265 CL     -19.4200    -9.8853    -7.1893 Cl     33 CCL4  -0.0812 
 266 C      -19.9151   -10.0885    -5.3849 C.3    33 CCL4   0.3246 
 267 CL     -21.5926    -9.3901    -5.0899 Cl     33 CCL4  -0.0812 
 268 CL     -18.6887    -9.1431    -4.4017 Cl     33 CCL4  -0.0812 
 269 CL     -19.8202   -11.7912    -4.9049 Cl     33 CCL4  -0.0812 
 270 CL     -28.4226   -14.8693    -0.5773 Cl     34 CCL4  -0.0812 
 271 C      -29.9466   -15.2789    -1.3566 C.3    34 CCL4   0.3246 
 272 CL     -31.3399   -14.5342    -0.6341 Cl     34 CCL4  -0.0812 
 273 CL     -30.1050   -17.0604    -1.3813 Cl     34 CCL4  -0.0812 
 274 CL     -29.8636   -14.7790    -3.0171 Cl     34 CCL4  -0.0812 
 275 CL     -28.5306    -9.6573    -4.1513 Cl     35 CCL4  -0.0812 
 276 C      -28.8891   -11.4416    -4.1359 C.3    35 CCL4   0.3246 
 277 CL     -30.0362   -12.0152    -5.3150 Cl     35 CCL4  -0.0812 
 278 CL     -29.6527   -11.6753    -2.4842 Cl     35 CCL4  -0.0812 
 279 CL     -27.4015   -12.4500    -4.1931 Cl     35 CCL4  -0.0812 
 280 CL     -12.8738    -7.6986    -2.2580 Cl     36 CCL4  -0.0812 
 281 C      -11.8925    -8.5228    -1.0667 C.3    36 CCL4   0.3246 
 282 CL     -11.3082   -10.0279    -1.7973 Cl     36 CCL4  -0.0812 
 283 CL     -12.8328    -8.8232     0.2840 Cl     36 CCL4  -0.0812 
 284 CL     -10.4356    -7.4802    -0.7000 Cl     36 CCL4  -0.0812 
 285 CL     -22.2035    -3.9739    -4.6077 Cl     37 CCL4  -0.0812 
 286 C      -22.0860    -5.7345    -4.7571 C.3    37 CCL4   0.3246 
 287 CL     -20.4767    -6.2484    -4.3358 Cl     37 CCL4  -0.0812 
 288 CL     -22.1666    -6.1871    -6.4893 Cl     37 CCL4  -0.0812 
 289 CL     -23.2454    -6.5121    -3.7089 Cl     37 CCL4  -0.0812 
 290 CL     -31.9902    -7.1390    -1.7306 Cl     38 CCL4  -0.0812 
 291 C      -31.4513    -8.2118    -0.3264 C.3    38 CCL4   0.3246 
 292 CL     -32.2826    -9.7548    -0.4107 Cl     38 CCL4  -0.0812 
 293 CL     -31.9360    -7.4006     1.1493 Cl     38 CCL4  -0.0812 
 294 CL     -29.6350    -8.4324    -0.5404 Cl     38 CCL4  -0.0812 
 295 CL     -26.5835   -11.9924    -0.6012 Cl     39 CCL4  -0.0812 
 296 C      -27.0325   -11.5027     1.0464 C.3    39 CCL4   0.3246 
 297 CL     -26.3556   -12.9181     1.9808 Cl     39 CCL4  -0.0812 
 298 CL     -28.8107   -11.4358     1.2694 Cl     39 CCL4  -0.0812 
 299 CL     -26.3546    -9.9411     1.4931 Cl     39 CCL4  -0.0812 
 300 CL     -22.3403   -15.0673    -0.0344 Cl     40 CCL4  -0.0812 
 301 C      -22.9742   -14.9347    -1.6933 C.3    40 CCL4   0.3246 
 302 CL     -21.9648   -15.7481    -2.8799 Cl     40 CCL4  -0.0812 
 303 CL     -23.1850   -13.1376    -2.1482 Cl     40 CCL4  -0.0812 
 304 CL     -24.5353   -15.6853    -1.7937 Cl     40 CCL4  -0.0812 
 305 CL     -15.8822    -9.5405    -6.4329 Cl     41 CCL4  -0.0812 
 306 C      -14.2483    -9.1502    -5.8490 C.3    41 CCL4   0.3246 
 307 CL     -14.1320    -7.3781    -5.5416 Cl     41 CCL4  -0.0812 
 308 CL     -13.0257    -9.6613    -7.0658 Cl     41 CCL4  -0.0812 
 309 CL     -13.9606    -9.8806    -4.2651 Cl     41 CCL4  -0.0812 
 310 CL      14.0814   -12.5626    -3.3555 Cl     42 CCL4  -0.0812 
 311 C       13.9905   -11.7000    -4.9127 C.3    42 CCL4   0.3246 
 312 CL      14.8188   -10.0591    -4.9166 Cl     42 CCL4  -0.0812 
 313 CL      12.2634   -11.1849    -5.0870 Cl     42 CCL4  -0.0812 
 314 CL      14.5879   -12.6658    -6.3133 Cl     42 CCL4  -0.0812 
 315 CL     -32.4659   -16.0441    -4.5856 Cl     43 CCL4  -0.0812 
 316 C      -31.3821   -16.6422    -5.8546 C.3    43 CCL4   0.3246 
 317 CL     -32.3285   -17.9738    -6.5587 Cl     43 CCL4  -0.0812 
 318 CL     -30.0500   -17.4942    -5.0412 Cl     43 CCL4  -0.0812 
 319 CL     -30.8744   -15.3909    -7.0224 Cl     43 CCL4  -0.0812 
 320 CL     -19.1439   -12.5650    -0.4560 Cl     44 CCL4  -0.0812 
 321 C      -19.0326   -12.7479     1.2827 C.3    44 CCL4   0.3246 
 322 CL     -17.3515   -12.0677     1.7156 Cl     44 CCL4  -0.0812 
 323 CL     -19.1402   -14.5038     1.6748 Cl     44 CCL4  -0.0812 
 324 CL     -20.2266   -11.8123     2.1624 Cl     44 CCL4  -0.0812 
 325 CL     -16.8707   -14.4501   -15.0260 Cl     45 CCL4  -0.0812 
 326 C      -16.3396   -13.1027   -14.0458 C.3    45 CCL4   0.3246 
 327 CL     -16.5866   -11.5357   -14.9436 Cl     45 CCL4  -0.0812 
 328 CL     -14.5874   -13.3335   -13.7873 Cl     45 CCL4  -0.0812 
 329 CL     -17.2740   -13.0508   -12.4725 Cl     45 CCL4  -0.0812 
 330 CL     -13.8633   -18.1669    24.0660 Cl     46 CCL4  -0.0812 
 331 C      -12.3915   -17.2089    23.9616 C.3    46 CCL4   0.3246 
 332 CL     -10.9110   -18.2246    24.0963 Cl     46 CCL4  -0.0812 
 333 CL     -12.3056   -15.9222    25.1454 Cl     46 CCL4  -0.0812 
 334 CL     -12.2709   -16.3785    22.3613 Cl     46 CCL4  -0.0812 
 335 CL     -13.2380   -14.7006   -10.8676 Cl     47 CCL4  -0.0812 
 336 C      -13.7762   -16.4615   -10.9524 C.3    47 CCL4   0.3246 
 337 CL     -15.2289   -16.4598   -12.0212 Cl     47 CCL4  -0.0812 
 338 CL     -14.0803   -17.0574    -9.3288 Cl     47 CCL4  -0.0812 
 339 CL     -12.4170   -17.4500   -11.5555 Cl     47 CCL4  -0.0812 
 340 CL     -17.5250    -8.2515   -10.2852 Cl     48 CCL4  -0.0812 
 341 C      -15.8852    -7.8104   -10.7848 C.3    48 CCL4   0.3246 
 342 CL     -14.9490    -7.4473    -9.4095 Cl     48 CCL4  -0.0812 
 343 CL     -15.9616    -6.2856   -11.6785 Cl     48 CCL4  -0.0812 
 344 CL     -15.2769    -9.1493   -11.7434 Cl     48 CCL4  -0.0812 
 345 CL     -20.1364    -8.2824   -16.2758 Cl     49 CCL4  -0.0812 
 346 C      -18.4520    -8.0308   -15.8068 C.3    49 CCL4   0.3246 
 347 CL     -18.1523    -8.6512   -14.1890 Cl     49 CCL4  -0.0812 
 348 CL     -18.3227    -6.2068   -15.7987 Cl     49 CCL4  -0.0812 
 349 CL     -17.4547    -8.8428   -17.1342 Cl     49 CCL4  -0.0812 
 350 CL     -19.4590   -16.5088    -8.3155 Cl     50 CCL4  -0.0812 
 351 C      -20.1369   -16.1592    -9.8788 C.3    50 CCL4   0.3246 
 352 CL     -20.9553   -17.6566   -10.3103 Cl     50 CCL4  -0.0812 
 353 CL     -19.0026   -15.7478   -11.2120 Cl     50 CCL4  -0.0812 
 354 CL     -21.3770   -14.8760    -9.8511 Cl     50 CCL4  -0.0812 
 355 CL     -15.6180   -14.8060     2.9857 Cl     51 CCL4  -0.0812 
 356 C      -14.0204   -15.1745     2.3073 C.3    51 CCL4   0.3246 
 357 CL     -13.3725   -13.6768     1.4522 Cl     51 CCL4  -0.0812 
 358 CL     -14.2081   -16.4951     1.1764 Cl     51 CCL4  -0.0812 
 359 CL     -12.8679   -15.6666     3.6567 Cl     51 CCL4  -0.0812 
 360 CL     -18.8889    -3.4379    -7.0340 Cl     52 CCL4  -0.0812 
 361 C      -17.6187    -4.6831    -7.1847 C.3    52 CCL4   0.3246 
 362 CL     -16.6369    -4.6882    -5.6866 Cl     52 CCL4  -0.0812 
 363 CL     -16.7644    -4.2976    -8.7621 Cl     52 CCL4  -0.0812 
 364 CL     -18.3350    -6.3190    -7.2752 Cl     52 CCL4  -0.0812 
 365 CL     -19.0264    -6.7218    -0.8705 Cl     53 CCL4  -0.0812 
 366 C      -17.3639    -7.3188    -1.0374 C.3    53 CCL4   0.3246 
 367 CL     -16.7826    -6.6612    -2.6201 Cl     53 CCL4  -0.0812 
 368 CL     -17.2376    -9.0476    -0.8790 Cl     53 CCL4  -0.0812 
 369 CL     -16.4077    -6.5563     0.3197 Cl     53 CCL4  -0.0812 
 370 CL     -13.7354   -13.0977    -3.1541 Cl     54 CCL4  -0.0812 
 371 C      -15.0823   -12.7555    -2.1224 C.3    54 CCL4   0.3246 
 372 CL     -16.4129   -12.0443    -3.0489 Cl     54 CCL4  -0.0812 
 373 CL     -14.5767   -11.3204    -1.1879 Cl     54 CCL4  -0.0812 
 374 CL     -15.7721   -14.0956    -1.0897 Cl     54 CCL4  -0.0812 
 375 CL     -19.0485    -8.9603     4.3645 Cl     55 CCL4  -0.0812 
 376 C      -20.0775    -7.7041     3.7702 C.3    55 CCL4   0.3246 
 377 CL     -19.0309    -6.6850     2.7509 Cl     55 CCL4  -0.0812 
 378 CL     -20.8947    -6.8520     5.1849 Cl     55 CCL4  -0.0812 
 379 CL     -21.4323    -8.3845     2.7855 Cl     55 CCL4  -0.0812 
 380 CL     -20.4805   -14.8226    23.2326 Cl     56 CCL4  -0.0812 
 381 C      -20.9058   -13.0247    22.8613 C.3    56 CCL4   0.3246 
 382 CL     -19.9960   -11.9081    23.8723 Cl     56 CCL4  -0.0812 
 383 CL     -22.6402   -12.8039    23.2800 Cl     56 CCL4  -0.0812 
 384 CL     -20.5095   -12.6698    21.1962 Cl     56 CCL4  -0.0812 
 385 CL     -15.8586   -12.0138    -8.8192 Cl     57 CCL4  -0.0812 
 386 C      -16.8762   -13.2759    -8.0276 C.3    57 CCL4   0.3246 
 387 CL     -16.5263   -13.3708    -6.2699 Cl     57 CCL4  -0.0812 
 388 CL     -16.5606   -14.8762    -8.7112 Cl     57 CCL4  -0.0812 
 389 CL     -18.6401   -12.9737    -8.3646 Cl     57 CCL4  -0.0812 
 390 CL     -21.5887   -10.0654   -13.4370 Cl     58 CCL4  -0.0812 
 391 C      -21.1563   -11.3311   -12.2943 C.3    58 CCL4   0.3246 
 392 CL     -22.4581   -11.3030   -11.1520 Cl     58 CCL4  -0.0812 
 393 CL     -19.5848   -10.9686   -11.3978 Cl     58 CCL4  -0.0812 
 394 CL     -20.8971   -12.8479   -13.0694 Cl     58 CCL4  -0.0812 
 395 CL     -21.2873    -6.6447   -12.2479 Cl     59 CCL4  -0.0812 
 396 C      -21.6621    -6.4378   -10.5655 C.3    59 CCL4   0.3246 
 397 CL     -20.7186    -5.0139   -10.0515 Cl     59 CCL4  -0.0812 
 398 CL     -21.1550    -7.8720    -9.6901 Cl     59 CCL4  -0.0812 
 399 CL     -23.3424    -6.1339   -10.1878 Cl     59 CCL4  -0.0812 
 400 CL      13.8863   -15.7604    11.7745 Cl     60 CCL4  -0.0812 
 401 C       13.6520   -14.1189    12.4387 C.3    60 CCL4   0.3246 
 402 CL      12.1572   -13.4920    11.7305 Cl     60 CCL4  -0.0812 
 403 CL      15.0749   -13.0624    12.2162 Cl     60 CCL4  -0.0812 
 404 CL      13.4403   -14.3297    14.2021 Cl     60 CCL4  -0.0812 
 405 CL     -22.0450    33.7353     8.6337 Cl     61 CCL4  -0.0812 
 406 C      -21.5436    33.7351    10.2542 C.3    61 CCL4   0.3246 
 407 CL     -21.8801    32.2395    11.0389 Cl     61 CCL4  -0.0812 
 408 CL     -22.1018    35.0905    11.1403 Cl     61 CCL4  -0.0812 
 409 CL     -19.7516    33.8616    10.2319 Cl     61 CCL4  -0.0812 
 410 CL     -29.8919    36.0418    13.6682 Cl     62 CCL4  -0.0812 
 411 C      -29.6056    34.2869    13.7954 C.3    62 CCL4   0.3246 
 412 CL     -29.8504    33.7717    15.4862 Cl     62 CCL4  -0.0812 
 413 CL     -28.0665    33.6875    13.2319 Cl     62 CCL4  -0.0812 
 414 CL     -30.8597    33.4737    12.8275 Cl     62 CCL4  -0.0812 
 415 CL     -28.4425    -6.5260    13.8506 Cl     63 CCL4  -0.0812 
 416 C      -27.9083    -4.9646    13.1652 C.3    63 CCL4   0.3246 
 417 CL     -28.8365    -3.5496    13.6989 Cl     63 CCL4  -0.0812 
 418 CL     -27.7617    -4.9544    11.4177 Cl     63 CCL4  -0.0812 
 419 CL     -26.2748    -4.6989    13.8223 Cl     63 CCL4  -0.0812 
 420 CL     -12.8958    -9.9068    10.9600 Cl     64 CCL4  -0.0812 
 421 C      -12.9411    -8.2866    10.2777 C.3    64 CCL4   0.3246 
 422 CL     -12.6960    -7.0123    11.6349 Cl     64 CCL4  -0.0812 
 423 CL     -14.5565    -7.8909     9.6226 Cl     64 CCL4  -0.0812 
 424 CL     -11.7747    -7.8610     9.0219 Cl     64 CCL4  -0.0812 
 425 CL     -20.9157    -3.7937     9.5930 Cl     65 CCL4  -0.0812 
 426 C      -22.7145    -4.2092     9.5887 C.3    65 CCL4   0.3246 
 427 CL     -22.9249    -5.9086     8.9809 Cl     65 CCL4  -0.0812 
 428 CL     -23.5576    -3.0876     8.5376 Cl     65 CCL4  -0.0812 
 429 CL     -23.3855    -3.9262    11.2533 Cl     65 CCL4  -0.0812 
 430 CL     -28.9989    -6.1350     8.5544 Cl     66 CCL4  -0.0812 
 431 C      -27.4773    -5.8459     7.6965 C.3    66 CCL4   0.3246 
 432 CL     -27.1411    -4.0740     8.1356 Cl     66 CCL4  -0.0812 
 433 CL     -27.7117    -5.9137     5.9461 Cl     66 CCL4  -0.0812 
 434 CL     -26.1170    -6.9318     8.0796 Cl     66 CCL4  -0.0812 
 435 CL     -26.0179    35.2118     7.7676 Cl     67 CCL4  -0.0812 
 436 C      -26.4039    33.7566     8.8156 C.3    67 CCL4   0.3246 
 437 CL     -28.1075    33.7820     9.4261 Cl     67 CCL4  -0.0812 
 438 CL     -25.2775    33.6121    10.2142 Cl     67 CCL4  -0.0812 
 439 CL     -26.0207    32.3532     7.7866 Cl     67 CCL4  -0.0812 
 440 CL     -33.1871    31.7372     6.9545 Cl     68 CCL4  -0.0812 
 441 C      -31.9418    32.6708     7.7904 C.3    68 CCL4   0.3246 
 442 CL     -32.1318    32.2156     9.5877 Cl     68 CCL4  -0.0812 
 443 CL     -32.3157    34.4653     7.8946 Cl     68 CCL4  -0.0812 
 444 CL     -30.4307    32.1646     7.2006 Cl     68 CCL4  -0.0812 
 445 CL      15.5338    -4.2017    13.0528 Cl     69 CCL4  -0.0812 
 446 C       14.1768    -4.9645    13.9422 C.3    69 CCL4   0.3246 
 447 CL      12.6580    -4.3819    13.1799 Cl     69 CCL4  -0.0812 
 448 CL      14.1859    -4.3731    15.5928 Cl     69 CCL4  -0.0812 
 449 CL      14.4452    -6.7019    13.8471 Cl     69 CCL4  -0.0812 
 450 CL     -30.4037    -3.6157     6.2759 Cl     70 CCL4  -0.0812 
 451 C      -31.1310    -4.3831     4.7744 C.3    70 CCL4   0.3246 
 452 CL     -32.4342    -3.3737     4.0854 Cl     70 CCL4  -0.0812 
 453 CL     -31.3161    -6.1182     4.9550 Cl     70 CCL4  -0.0812 
 454 CL     -29.6587    -4.2637     3.6313 Cl     70 CCL4  -0.0812 
 455 CL     -23.7953    31.1759    18.2279 Cl     71 CCL4  -0.0812 
 456 C      -22.8944    32.2487    19.3017 C.3    71 CCL4   0.3246 
 457 CL     -21.7345    33.3360    18.4932 Cl     71 CCL4  -0.0812 
 458 CL     -21.9224    31.1640    20.5496 Cl     71 CCL4  -0.0812 
 459 CL     -24.0004    33.2142    20.2813 Cl     71 CCL4  -0.0812 
 460 CL     -24.8725   -16.9543    17.0463 Cl     72 CCL4  -0.0812 
 461 C      -26.4465   -16.6767    17.9158 C.3    72 CCL4   0.3246 
 462 CL     -26.1733   -15.7287    19.3482 Cl     72 CCL4  -0.0812 
 463 CL     -27.1478   -18.2939    18.3613 Cl     72 CCL4  -0.0812 
 464 CL     -27.4764   -15.7947    16.8641 Cl     72 CCL4  -0.0812 
 465 CL      -9.8933    -7.5567    20.1558 Cl     73 CCL4  -0.0812 
 466 C       -9.4473    -6.7101    18.6656 C.3    73 CCL4   0.3246 
 467 CL      -8.7707    -5.1168    19.1583 Cl     73 CCL4  -0.0812 
 468 CL     -11.0426    -6.4532    17.9158 Cl     73 CCL4  -0.0812 
 469 CL      -8.3757    -7.5545    17.5065 Cl     73 CCL4  -0.0812 
 470 CL     -24.8298   -12.5920    11.4801 Cl     74 CCL4  -0.0812 
 471 C      -25.5202   -13.7222    12.6765 C.3    74 CCL4   0.3246 
 472 CL     -26.6562   -14.8175    11.6777 Cl     74 CCL4  -0.0812 
 473 CL     -26.4729   -12.6734    13.8275 Cl     74 CCL4  -0.0812 
 474 CL     -24.3514   -14.7912    13.4409 Cl     74 CCL4  -0.0812 
 475 CL     -25.5261    -8.5897    18.8617 Cl     75 CCL4  -0.0812 
 476 C      -25.9142    -8.9053    17.1048 C.3    75 CCL4   0.3246 
 477 CL     -27.1132   -10.3267    17.0881 Cl     75 CCL4  -0.0812 
 478 CL     -24.3710    -9.4925    16.3419 Cl     75 CCL4  -0.0812 
 479 CL     -26.5582    -7.5240    16.3551 Cl     75 CCL4  -0.0812 
 480 CL     -29.4399    -9.8465    14.2776 Cl     76 CCL4  -0.0812 
 481 C      -30.5645   -10.6376    15.3740 C.3    76 CCL4   0.3246 
 482 CL     -30.1654   -12.3189    15.6302 Cl     76 CCL4  -0.0812 
 483 CL     -32.2087   -10.5152    14.6275 Cl     76 CCL4  -0.0812 
 484 CL     -30.5734    -9.8777    16.9983 Cl     76 CCL4  -0.0812 
 485 CL     -14.7810   -13.3097     7.4483 Cl     77 CCL4  -0.0812 
 486 C      -14.8442   -11.8885     6.3746 C.3    77 CCL4   0.3246 
 487 CL     -13.8513   -12.0631     4.9335 Cl     77 CCL4  -0.0812 
 488 CL     -14.1561   -10.5534     7.4406 Cl     77 CCL4  -0.0812 
 489 CL     -16.4626   -11.5524     5.9252 Cl     77 CCL4  -0.0812 
 490 CL     -24.7124    -9.6144     9.9149 Cl     78 CCL4  -0.0812 
 491 C      -25.7039    -8.7841    11.1939 C.3    78 CCL4   0.3246 
 492 CL     -25.6261    -9.4622    12.7914 Cl     78 CCL4  -0.0812 
 493 CL     -27.4297    -8.6888    10.8111 Cl     78 CCL4  -0.0812 
 494 CL     -25.0939    -7.0886    11.2285 Cl     78 CCL4  -0.0812 
 495 CL     -11.2894    -9.7054     6.0834 Cl     79 CCL4  -0.0812 
 496 C      -10.6775    -8.4328     5.0229 C.3    79 CCL4   0.3246 
 497 CL      -9.1740    -8.9690     4.2438 Cl     79 CCL4  -0.0812 
 498 CL     -10.2597    -6.9037     5.8617 Cl     79 CCL4  -0.0812 
 499 CL     -11.8905    -8.1622     3.7423 Cl     79 CCL4  -0.0812 
 500 CL     -23.2618   -11.1618     4.5028 Cl     80 CCL4  -0.0812 
 501 C      -23.8991   -10.0733     5.7915 C.3    80 CCL4   0.3246 
 502 CL     -25.2215   -10.7951     6.7741 Cl     80 CCL4  -0.0812 
 503 CL     -24.4450    -8.6224     4.9643 Cl     80 CCL4  -0.0812 
 504 CL     -22.5428    -9.5421     6.7433 Cl     80 CCL4  -0.0812 
 505 CL     -29.5449   -16.3590     5.7860 Cl     81 CCL4  -0.0812 
 506 C      -29.0327   -14.9071     5.0243 C.3    81 CCL4   0.3246 
 507 CL     -29.2331   -13.5636     6.1059 Cl     81 CCL4  -0.0812 
 508 CL     -29.8781   -14.4972     3.5501 Cl     81 CCL4  -0.0812 
 509 CL     -27.2462   -14.9421     4.7088 Cl     81 CCL4  -0.0812 
 510 CL     -29.0766    -9.0918     6.5325 Cl     82 CCL4  -0.0812 
 511 C      -29.1311    -9.6680     4.8883 C.3    82 CCL4   0.3246 
 512 CL     -29.0244    -8.3581     3.6966 Cl     82 CCL4  -0.0812 
 513 CL     -30.6731   -10.4186     4.7447 Cl     82 CCL4  -0.0812 
 514 CL     -27.7385   -10.6998     4.5542 Cl     82 CCL4  -0.0812 
 515 CL     -32.1440    -7.8586     8.2767 Cl     83 CCL4  -0.0812 
 516 C      -32.5464    -7.9861    10.0856 C.3    83 CCL4   0.3246 
 517 CL     -33.3567    -9.5998    10.2721 Cl     83 CCL4  -0.0812 
 518 CL     -33.8704    -6.8264    10.4240 Cl     83 CCL4  -0.0812 
 519 CL     -31.1080    -7.9732    11.0425 Cl     83 CCL4  -0.0812 
 520 CL     -29.7473   -14.4014    10.0294 Cl     84 CCL4  -0.0812 
 521 C      -29.4866   -12.6889     9.9343 C.3    84 CCL4   0.3246 
 522 CL     -30.6086   -11.8341     8.9701 Cl     84 CCL4  -0.0812 
 523 CL     -27.7632   -12.4913     9.1630 Cl     84 CCL4  -0.0812 
 524 CL     -29.2478   -12.0070    11.5929 Cl     84 CCL4  -0.0812 
 525 CL      13.9787   -13.6693     8.4612 Cl     85 CCL4  -0.0812 
 526 C       13.6474   -12.9009     6.8880 C.3    85 CCL4   0.3246 
 527 CL      12.0083   -13.1016     6.3558 Cl     85 CCL4  -0.0812 
 528 CL      14.6486   -13.5650     5.6348 Cl     85 CCL4  -0.0812 
 529 CL      13.8726   -11.1736     7.0398 Cl     85 CCL4  -0.0812 
 530 CL     -11.1590   -16.1013    17.3086 Cl     86 CCL4  -0.0812 
 531 C      -12.1212   -15.3103    18.5702 C.3    86 CCL4   0.3246 
 532 CL     -11.0897   -14.6948    19.8724 Cl     86 CCL4  -0.0812 
 533 CL     -13.3366   -16.2921    19.3078 Cl     86 CCL4  -0.0812 
 534 CL     -12.8309   -13.7095    17.8130 Cl     86 CCL4  -0.0812 
 535 CL     -10.3891   -10.5804    15.9887 Cl     87 CCL4  -0.0812 
 536 C      -11.2025    -9.9563    14.6328 C.3    87 CCL4   0.3246 
 537 CL     -12.7829   -10.7760    14.5267 Cl     87 CCL4  -0.0812 
 538 CL     -10.4740   -10.2740    13.1319 Cl     87 CCL4  -0.0812 
 539 CL     -11.4215    -8.2568    14.9294 Cl     87 CCL4  -0.0812 
 540 CL     -21.0354   -16.4315     5.0938 Cl     88 CCL4  -0.0812 
 541 C      -22.7370   -16.3734     4.8084 C.3    88 CCL4   0.3246 
 542 CL     -23.4429   -17.8366     5.2673 Cl     88 CCL4  -0.0812 
 543 CL     -23.0728   -15.9229     3.0685 Cl     88 CCL4  -0.0812 
 544 CL     -23.3917   -15.0051     5.8253 Cl     88 CCL4  -0.0812 
 545 CL     -23.9415   -11.7527    19.3415 Cl     89 CCL4  -0.0812 
 546 C      -23.2838   -12.9659    18.2165 C.3    89 CCL4   0.3246 
 547 CL     -24.4262   -13.3780    16.9669 Cl     89 CCL4  -0.0812 
 548 CL     -22.7895   -14.3810    19.0498 Cl     89 CCL4  -0.0812 
 549 CL     -21.9441   -12.2554    17.3371 Cl     89 CCL4  -0.0812 
 550 CL     -22.2035    -3.9739    20.3923 Cl     90 CCL4  -0.0812 
 551 C      -22.0860    -5.7345    20.2429 C.3    90 CCL4   0.3246 
 552 CL     -20.4767    -6.2484    20.6642 Cl     90 CCL4  -0.0812 
 553 CL     -22.1666    -6.1871    18.5107 Cl     90 CCL4  -0.0812 
 554 CL     -23.2454    -6.5121    21.2911 Cl     90 CCL4  -0.0812 
 555 CL     -15.8822    -9.5405    18.5671 Cl     91 CCL4  -0.0812 
 556 C      -14.2483    -9.1502    19.1510 C.3    91 CCL4   0.3246 
 557 CL     -14.1320    -7.3781    19.4584 Cl     91 CCL4  -0.0812 
 558 CL     -13.0257    -9.6613    17.9342 Cl     91 CCL4  -0.0812 
 559 CL     -13.9606    -9.8806    20.7349 Cl     91 CCL4  -0.0812 
 560 CL      14.0814   -12.5626    21.6445 Cl     92 CCL4  -0.0812 
 561 C       13.9905   -11.7000    20.0873 C.3    92 CCL4   0.3246 
 562 CL      14.8188   -10.0591    20.0834 Cl     92 CCL4  -0.0812 
 563 CL      12.2634   -11.1849    19.9130 Cl     92 CCL4  -0.0812 
 564 CL      14.5879   -12.6658    18.6867 Cl     92 CCL4  -0.0812 
 565 CL     -32.4659   -16.0441    20.4144 Cl     93 CCL4  -0.0812 
 566 C      -31.3821   -16.6422    19.1454 C.3    93 CCL4   0.3246 
 567 CL     -32.3285   -17.9738    18.4413 Cl     93 CCL4  -0.0812 
 568 CL     -30.0500   -17.4942    19.9588 Cl     93 CCL4  -0.0812 
 569 CL     -30.8744   -15.3909    17.9776 Cl     93 CCL4  -0.0812 
 570 CL     -16.8707   -14.4501     9.9740 Cl     94 CCL4  -0.0812 
 571 C      -16.3396   -13.1027    10.9542 C.3    94 CCL4   0.3246 
 572 CL     -16.5866   -11.5357    10.0564 Cl     94 CCL4  -0.0812 
 573 CL     -14.5874   -13.3335    11.2127 Cl     94 CCL4  -0.0812 
 574 CL     -17.2740   -13.0508    12.5275 Cl     94 CCL4  -0.0812 
 575 CL     -13.8633   -18.1669     9.0660 Cl     95 CCL4  -0.0812 
 576 C      -12.3915   -17.2089     8.9616 C.3    95 CCL4   0.3246 
 577 CL     -10.9110   -18.2246     9.0963 Cl     95 CCL4  -0.0812 
 578 CL     -12.3056   -15.9222    10.1454 Cl     95 CCL4  -0.0812 
 579 CL     -12.2709   -16.3785     7.3613 Cl     95 CCL4  -0.0812 
 580 CL     -13.2380   -14.7006    14.1324 Cl     96 CCL4  -0.0812 
 581 C      -13.7762   -16.4615    14.0476 C.3    96 CCL4   0.3246 
 582 CL     -15.2289   -16.4598    12.9788 Cl     96 CCL4  -0.0812 
 583 CL     -14.0803   -17.0574    15.6712 Cl     96 CCL4  -0.0812 
 584 CL     -12.4170   -17.4500    13.4445 Cl     96 CCL4  -0.0812 
 585 CL     -15.7626    -8.2520     4.5409 Cl     97 CCL4  -0.0812 
 586 C      -15.2143    -6.6641     4.9409 C.3    97 CCL4   0.3246 
 587 CL     -14.8375    -5.7000     3.5650 Cl     97 CCL4  -0.0812 
 588 CL     -13.8933    -6.7047     6.0694 Cl     97 CCL4  -0.0812 
 589 CL     -16.5162    -5.7688     5.7742 Cl     97 CCL4  -0.0812 
 590 CL     -17.5250    -8.2515    14.7148 Cl     98 CCL4  -0.0812 
 591 C      -15.8852    -7.8104    14.2152 C.3    98 CCL4   0.3246 
 592 CL     -14.9490    -7.4473    15.5905 Cl     98 CCL4  -0.0812 
 593 CL     -15.9616    -6.2856    13.3215 Cl     98 CCL4  -0.0812 
 594 CL     -15.2769    -9.1493    13.2566 Cl     98 CCL4  -0.0812 
 595 CL     -15.5671   -16.9959     6.0993 Cl     99 CCL4  -0.0812 
 596 C      -17.2519   -16.6893     5.6557 C.3    99 CCL4   0.3246 
 597 CL     -18.2799   -17.5032     6.8449 Cl     99 CCL4  -0.0812 
 598 CL     -17.6680   -17.2870     4.0133 Cl     99 CCL4  -0.0812 
 599 CL     -17.7847   -14.9967     5.7545 Cl     99 CCL4  -0.0812 
 600 CL     -20.1364    -8.2824     8.7242 Cl    100 CCL4  -0.0812 
 601 C      -18.4520    -8.0308     9.1932 C.3   100 CCL4   0.3246 
 602 CL     -18.1523    -8.6512    10.8110 Cl    100 CCL4  -0.0812 
 603 CL     -18.3227    -6.2068     9.2013 Cl    100 CCL4  -0.0812 
 604 CL     -17.4547    -8.8428     7.8658 Cl    100 CCL4  -0.0812 
 605 CL     -19.4590   -16.5088    16.6845 Cl    101 CCL4  -0.0812 
 606 C      -20.1369   -16.1592    15.1212 C.3   101 CCL4   0.3246 
 607 CL     -20.9553   -17.6566    14.6897 Cl    101 CCL4  -0.0812 
 608 CL     -19.0026   -15.7478    13.7880 Cl    101 CCL4  -0.0812 
 609 CL     -21.3770   -14.8760    15.1489 Cl    101 CCL4  -0.0812 
 610 CL     -18.8889    -3.4379    17.9660 Cl    102 CCL4  -0.0812 
 611 C      -17.6187    -4.6831    17.8153 C.3   102 CCL4   0.3246 
 612 CL     -16.6369    -4.6882    19.3134 Cl    102 CCL4  -0.0812 
 613 CL     -16.7644    -4.2976    16.2379 Cl    102 CCL4  -0.0812 
 614 CL     -18.3350    -6.3190    17.7248 Cl    102 CCL4  -0.0812 
 615 CL     -20.4805   -14.8226     8.2326 Cl    103 CCL4  -0.0812 
 616 C      -20.9058   -13.0247     7.8613 C.3   103 CCL4   0.3246 
 617 CL     -19.9960   -11.9081     8.8723 Cl    103 CCL4  -0.0812 
 618 CL     -22.6402   -12.8039     8.2800 Cl    103 CCL4  -0.0812 
 619 CL     -20.5095   -12.6698     6.1962 Cl    103 CCL4  -0.0812 
 620 CL     -15.8586   -12.0138    16.1808 Cl    104 CCL4  -0.0812 
 621 C      -16.8762   -13.2759    16.9724 C.3   104 CCL4   0.3246 
 622 CL     -16.5263   -13.3708    18.7301 Cl    104 CCL4  -0.0812 
 623 CL     -16.5606   -14.8762    16.2888 Cl    104 CCL4  -0.0812 
 624 CL     -18.6401   -12.9737    16.6354 Cl    104 CCL4  -0.0812 
 625 CL     -21.5887   -10.0654    11.5630 Cl    105 CCL4  -0.0812 
 626 C      -21.1563   -11.3311    12.7057 C.3   105 CCL4   0.3246 
 627 CL     -22.4581   -11.3030    13.8480 Cl    105 CCL4  -0.0812 
 628 CL     -19.5848   -10.9686    13.6022 Cl    105 CCL4  -0.0812 
 629 CL     -20.8971   -12.8479    11.9306 Cl    105 CCL4  -0.0812 
 630 CL     -21.2873    -6.6447    12.7521 Cl    106 CCL4  -0.0812 
 631 C      -21.6621    -6.4378    14.4345 C.3   106 CCL4   0.3246 
 632 CL     -20.7186    -5.0139    14.9485 Cl    106 CCL4  -0.0812 
 633 CL     -21.1550    -7.8720    15.3099 Cl    106 CCL4  -0.0812 
 634 CL     -23.3424    -6.1339    14.8122 Cl    106 CCL4  -0.0812 
 635 CL      13.8863     9.2396   -13.2255 Cl    107 CCL4  -0.0812 
 636 C       13.6520    10.8811   -12.5613 C.3   107 CCL4   0.3246 
 637 CL      12.1572    11.5080   -13.2695 Cl    107 CCL4  -0.0812 
 638 CL      15.0749    11.9376   -12.7838 Cl    107 CCL4  -0.0812 
 639 CL      13.4403    10.6703   -10.7979 Cl    107 CCL4  -0.0812 
 640 CL     -22.0450     7.2854   -16.3663 Cl    108 CCL4  -0.0812 
 641 C      -21.5436     7.2852   -14.7458 C.3   108 CCL4   0.3246 
 642 CL     -21.8801     5.7896   -13.9611 Cl    108 CCL4  -0.0812 
 643 CL     -22.1018     8.6406   -13.8597 Cl    108 CCL4  -0.0812 
 644 CL     -19.7516     7.4117   -14.7681 Cl    108 CCL4  -0.0812 
 645 CL     -24.1602    -1.8842   -10.5786 Cl    109 CCL4  -0.0812 
 646 C      -24.7580    -0.8663   -11.9738 C.3   109 CCL4   0.3246 
 647 CL     -25.9966    -1.6451   -13.0564 Cl    109 CCL4  -0.0812 
 648 CL     -23.3805    -0.3055   -12.9729 Cl    109 CCL4  -0.0812 
 649 CL     -25.4889     0.6724   -11.2333 Cl    109 CCL4  -0.0812 
 650 CL     -29.8919     9.5919   -11.3318 Cl    110 CCL4  -0.0812 
 651 C      -29.6056     7.8370   -11.2046 C.3   110 CCL4   0.3246 
 652 CL     -29.8504     7.3218    -9.5138 Cl    110 CCL4  -0.0812 
 653 CL     -28.0665     7.2376   -11.7681 Cl    110 CCL4  -0.0812 
 654 CL     -30.8597     7.0238   -12.1725 Cl    110 CCL4  -0.0812 
 655 CL     -26.1200    -3.3155     3.2129 Cl    111 CCL4  -0.0812 
 656 C      -24.9375    -2.9073     4.5053 C.3   111 CCL4   0.3246 
 657 CL     -24.4694    -4.4581     5.1544 Cl    111 CCL4  -0.0812 
 658 CL     -25.8935    -2.0306     5.7265 Cl    111 CCL4  -0.0812 
 659 CL     -23.5835    -2.0096     3.9416 Cl    111 CCL4  -0.0812 
 660 CL     -22.7871     1.7440     3.6817 Cl    112 CCL4  -0.0812 
 661 C      -24.4590     2.3413     3.5548 C.3   112 CCL4   0.3246 
 662 CL     -24.8148     2.5933     1.7612 Cl    112 CCL4  -0.0812 
 663 CL     -24.7885     3.8649     4.3945 Cl    112 CCL4  -0.0812 
 664 CL     -25.6928     1.1183     3.9797 Cl    112 CCL4  -0.0812 
 665 CL     -11.7712    20.7214     4.1149 Cl    113 CCL4  -0.0812 
 666 C      -11.0552    20.4473     2.4943 C.3   113 CCL4   0.3246 
 667 CL     -10.4854    22.1241     2.0185 Cl    113 CCL4  -0.0812 
 668 CL     -12.2665    19.7458     1.3952 Cl    113 CCL4  -0.0812 
 669 CL      -9.6652    19.4279     2.8251 Cl    113 CCL4  -0.0812 
 670 CL     -28.4425    18.4740   -11.1494 Cl    114 CCL4  -0.0812 
 671 C      -27.9083    20.0354   -11.8348 C.3   114 CCL4   0.3246 
 672 CL     -28.8365    21.4504   -11.3011 Cl    114 CCL4  -0.0812 
 673 CL     -27.7617    20.0456   -13.5823 Cl    114 CCL4  -0.0812 
 674 CL     -26.2748    20.3011   -11.1777 Cl    114 CCL4  -0.0812 
 675 CL     -24.4461     6.6743   -11.4991 Cl    115 CCL4  -0.0812 
 676 C      -24.9546     4.9470   -11.2829 C.3   115 CCL4   0.3246 
 677 CL     -23.5276     4.0036   -10.8187 Cl    115 CCL4  -0.0812 
 678 CL     -25.6157     4.2643   -12.7353 Cl    115 CCL4  -0.0812 
 679 CL     -26.0503     4.8316    -9.8320 Cl    115 CCL4  -0.0812 
 680 CL     -29.5517    -1.2034   -15.3956 Cl    116 CCL4  -0.0812 
 681 C      -31.3331    -1.7293   -15.2464 C.3   116 CCL4   0.3246 
 682 CL     -31.3485    -3.4224   -15.0401 Cl    116 CCL4  -0.0812 
 683 CL     -32.3024    -1.2976   -16.7341 Cl    116 CCL4  -0.0812 
 684 CL     -31.9945    -0.7994   -13.8235 Cl    116 CCL4  -0.0812 
 685 CL     -25.3624    -1.2923    -7.4919 Cl    117 CCL4  -0.0812 
 686 C      -25.8633    -2.9282    -7.1365 C.3   117 CCL4   0.3246 
 687 CL     -24.6308    -4.0587    -7.6796 Cl    117 CCL4  -0.0812 
 688 CL     -27.3007    -3.3374    -8.0907 Cl    117 CCL4  -0.0812 
 689 CL     -26.1928    -3.0911    -5.4500 Cl    117 CCL4  -0.0812 
 690 CL     -29.0396    -0.5690   -11.5537 Cl    118 CCL4  -0.0812 
 691 C      -29.7835    -0.0784   -10.0025 C.3   118 CCL4   0.3246 
 692 CL     -28.5596     0.4103    -8.9297 Cl    118 CCL4  -0.0812 
 693 CL     -30.6604    -1.4919    -9.3865 Cl    118 CCL4  -0.0812 
 694 CL     -30.9740     1.2643   -10.3073 Cl    118 CCL4  -0.0812 
 695 CL     -12.8958    15.0932   -14.0400 Cl    119 CCL4  -0.0812 
 696 C      -12.9411    16.7134   -14.7223 C.3   119 CCL4   0.3246 
 697 CL     -12.6960    17.9877   -13.3651 Cl    119 CCL4  -0.0812 
 698 CL     -14.5565    17.1091   -15.3774 Cl    119 CCL4  -0.0812 
 699 CL     -11.7747    17.1390   -15.9781 Cl    119 CCL4  -0.0812 
 700 CL     -20.9157    21.2063   -15.4070 Cl    120 CCL4  -0.0812 
 701 C      -22.7145    20.7908   -15.4113 C.3   120 CCL4   0.3246 
 702 CL     -22.9249    19.0914   -16.0191 Cl    120 CCL4  -0.0812 
 703 CL     -23.5576    21.9124   -16.4624 Cl    120 CCL4  -0.0812 
 704 CL     -23.3855    21.0738   -13.7467 Cl    120 CCL4  -0.0812 
 705 CL     -28.9989    18.8650    23.5544 Cl    121 CCL4  -0.0812 
 706 C      -27.4773    19.1541    22.6965 C.3   121 CCL4   0.3246 
 707 CL     -27.1411    20.9260    23.1356 Cl    121 CCL4  -0.0812 
 708 CL     -27.7117    19.0863    20.9461 Cl    121 CCL4  -0.0812 
 709 CL     -26.1170    18.0682    23.0796 Cl    121 CCL4  -0.0812 
 710 CL     -10.4268    -2.6624    24.8345 Cl    122 CCL4  -0.0812 
 711 C      -10.5954    -3.3900    23.2205 C.3   122 CCL4   0.3246 
 712 CL     -11.9581    -4.5544    23.1242 Cl    122 CCL4  -0.0812 
 713 CL      -9.0020    -4.0224    22.7926 Cl    122 CCL4  -0.0812 
 714 CL     -10.9406    -2.0032    22.1156 Cl    122 CCL4  -0.0812 
 715 CL     -26.9918     6.8557     4.0825 Cl    123 CCL4  -0.0812 
 716 C      -27.2978     7.0058     2.3773 C.3   123 CCL4   0.3246 
 717 CL     -26.2274     8.1740     1.5943 Cl    123 CCL4  -0.0812 
 718 CL     -28.9682     7.4787     2.0294 Cl    123 CCL4  -0.0812 
 719 CL     -27.1331     5.3836     1.5612 Cl    123 CCL4  -0.0812 
 720 CL      13.4949     8.4460     4.4712 Cl    124 CCL4  -0.0812 
 721 C       14.1972     7.4482     3.1153 C.3   124 CCL4   0.3246 
 722 CL      15.5809     6.6122     3.7896 Cl    124 CCL4  -0.0812 
 723 CL      14.7521     8.6253     1.9451 Cl    124 CCL4  -0.0812 
 724 CL      13.0808     6.2803     2.5040 Cl    124 CCL4  -0.0812 
 725 CL     -22.8151     4.1474    22.7156 Cl    125 CCL4  -0.0812 
 726 C      -23.0626     2.5767    23.4813 C.3   125 CCL4   0.3246 
 727 CL     -24.4414     2.6129    24.5648 Cl    125 CCL4  -0.0812 
 728 CL     -21.6056     2.0907    24.4265 Cl    125 CCL4  -0.0812 
 729 CL     -23.2853     1.2966    22.2023 Cl    125 CCL4  -0.0812 
 730 CL     -26.0179     8.7619    22.7676 Cl    126 CCL4  -0.0812 
 731 C      -26.4039     7.3067    23.8156 C.3   126 CCL4   0.3246 
 732 CL     -28.1075     7.3321    24.4261 Cl    126 CCL4  -0.0812 
 733 CL     -25.2775     7.1622    25.2142 Cl    126 CCL4  -0.0812 
 734 CL     -26.0207     5.9033    22.7866 Cl    126 CCL4  -0.0812 
 735 CL     -33.1871     5.2873    21.9545 Cl    127 CCL4  -0.0812 
 736 C      -31.9418     6.2209    22.7904 C.3   127 CCL4   0.3246 
 737 CL     -32.1318     5.7657    24.5877 Cl    127 CCL4  -0.0812 
 738 CL     -32.3157     8.0154    22.8946 Cl    127 CCL4  -0.0812 
 739 CL     -30.4307     5.7148    22.2006 Cl    127 CCL4  -0.0812 
 740 CL     -28.1667     1.6928   -14.3160 Cl    128 CCL4  -0.0812 
 741 C      -29.1809     2.9321   -13.5921 C.3   128 CCL4   0.3246 
 742 CL     -28.8515     4.4572   -14.4357 Cl    128 CCL4  -0.0812 
 743 CL     -28.5600     3.1761   -11.8740 Cl    128 CCL4  -0.0812 
 744 CL     -30.8563     2.4056   -13.6194 Cl    128 CCL4  -0.0812 
 745 CL      -8.9390     7.1209   -10.4022 Cl    129 CCL4  -0.0812 
 746 C       -9.2682     5.4933   -11.0589 C.3   129 CCL4   0.3246 
 747 CL     -10.5192     4.6544   -10.1725 Cl    129 CCL4  -0.0812 
 748 CL      -7.8759     4.4904   -10.8251 Cl    129 CCL4  -0.0812 
 749 CL      -9.6811     5.7421   -12.8096 Cl    129 CCL4  -0.0812 
 750 CL      -8.6541    -0.8994   -10.6034 Cl    130 CCL4  -0.0812 
 751 C      -10.1196    -0.0236   -11.1281 C.3   130 CCL4   0.3246 
 752 CL      -9.5546     1.2202   -12.2809 Cl    130 CCL4  -0.0812 
 753 CL     -11.0118     0.7252    -9.8294 Cl    130 CCL4  -0.0812 
 754 CL     -11.2210    -1.1099   -12.1134 Cl    130 CCL4  -0.0812 
 755 CL     -10.7289     6.3171    -5.6065 Cl    131 CCL4  -0.0812 
 756 C      -11.4855     4.7492    -5.1265 C.3   131 CCL4   0.3246 
 757 CL     -11.5936     3.6956    -6.5819 Cl    131 CCL4  -0.0812 
 758 CL     -13.1655     5.0916    -4.4922 Cl    131 CCL4  -0.0812 
 759 CL     -10.5392     3.8447    -3.8287 Cl    131 CCL4  -0.0812 
 760 CL      15.5338    20.7983   -11.9472 Cl    132 CCL4  -0.0812 
 761 C       14.1768    20.0355   -11.0578 C.3   132 CCL4   0.3246 
 762 CL      12.6580    20.6181   -11.8201 Cl    132 CCL4  -0.0812 
 763 CL      14.1859    20.6269    -9.4072 Cl    132 CCL4  -0.0812 
 764 CL      14.4452    18.2981   -11.1529 Cl    132 CCL4  -0.0812 
 765 CL     -11.1268     0.7457    24.2866 Cl    133 CCL4  -0.0812 
 766 C      -10.5828     2.2549    23.5587 C.3   133 CCL4   0.3246 
 767 CL      -9.3118     3.0355    24.6023 Cl    133 CCL4  -0.0812 
 768 CL     -11.8949     3.4974    23.4636 Cl    133 CCL4  -0.0812 
 769 CL      -9.9146     2.1439    21.9913 Cl    133 CCL4  -0.0812 
 770 CL     -29.5545     1.1643    -2.9316 Cl    134 CCL4  -0.0812 
 771 C      -29.0823    -0.3017    -3.9214 C.3   134 CCL4   0.3246 
 772 CL     -30.6263    -0.8183    -4.6742 Cl    134 CCL4  -0.0812 
 773 CL     -28.3048    -1.6219    -2.9424 Cl    134 CCL4  -0.0812 
 774 CL     -28.0029     0.2833    -5.1786 Cl    134 CCL4  -0.0812 
 775 CL     -23.5296    -2.1925     0.4060 Cl    135 CCL4  -0.0812 
 776 C      -22.2634    -3.4710     0.7380 C.3   135 CCL4   0.3246 
 777 CL     -21.0562    -2.7653     1.8204 Cl    135 CCL4  -0.0812 
 778 CL     -21.5414    -3.8864    -0.8389 Cl    135 CCL4  -0.0812 
 779 CL     -23.0315    -4.8835     1.5359 Cl    135 CCL4  -0.0812 
 780 CL     -22.5924     6.4644    -0.8454 Cl    136 CCL4  -0.0812 
 781 C      -21.8484     5.7658     0.5083 C.3   136 CCL4   0.3246 
 782 CL     -22.8717     5.7990     1.9580 Cl    136 CCL4  -0.0812 
 783 CL     -20.4735     6.7858     1.0147 Cl    136 CCL4  -0.0812 
 784 CL     -21.2991     4.1364     0.1770 Cl    136 CCL4  -0.0812 
 785 CL      -8.4134     0.6148    -4.5974 Cl    137 CCL4  -0.0812 
 786 C       -9.3761    -0.7638    -5.3174 C.3   137 CCL4   0.3246 
 787 CL      -8.5331    -1.4074    -6.7713 Cl    137 CCL4  -0.0812 
 788 CL     -10.9440    -0.1322    -5.7963 Cl    137 CCL4  -0.0812 
 789 CL      -9.6973    -2.1471    -4.1557 Cl    137 CCL4  -0.0812 
 790 CL      13.8837    -1.6608    -0.6485 Cl    138 CCL4  -0.0812 
 791 C       14.6507    -3.2404    -1.0724 C.3   138 CCL4   0.3246 
 792 CL      13.2430    -4.2868    -1.4192 Cl    138 CCL4  -0.0812 
 793 CL      15.4811    -3.7246     0.4084 Cl    138 CCL4  -0.0812 
 794 CL      15.8106    -3.3064    -2.3933 Cl    138 CCL4  -0.0812 
 795 CL     -23.7953     4.7260    -6.7721 Cl    139 CCL4  -0.0812 
 796 C      -22.8944     5.7988    -5.6983 C.3   139 CCL4   0.3246 
 797 CL     -21.7345     6.8861    -6.5068 Cl    139 CCL4  -0.0812 
 798 CL     -21.9224     4.7141    -4.4504 Cl    139 CCL4  -0.0812 
 799 CL     -24.0004     6.7643    -4.7187 Cl    139 CCL4  -0.0812 
 800 CL     -24.8725     8.0457    -7.9537 Cl    140 CCL4  -0.0812 
 801 C      -26.4465     8.3233    -7.0842 C.3   140 CCL4   0.3246 
 802 CL     -26.1733     9.2713    -5.6518 Cl    140 CCL4  -0.0812 
 803 CL     -27.1478     6.7061    -6.6387 Cl    140 CCL4  -0.0812 
 804 CL     -27.4764     9.2053    -8.1359 Cl    140 CCL4  -0.0812 
 805 CL     -19.8639     0.1997    -8.3907 Cl    141 CCL4  -0.0812 
 806 C      -21.4023     0.6241    -7.8021 C.3   141 CCL4   0.3246 
 807 CL     -22.4841     0.9429    -9.2447 Cl    141 CCL4  -0.0812 
 808 CL     -21.3126     2.0740    -6.8645 Cl    141 CCL4  -0.0812 
 809 CL     -22.1371    -0.6589    -6.8748 Cl    141 CCL4  -0.0812 
 810 CL     -26.5648    17.7493    -1.9818 Cl    142 CCL4  -0.0812 
 811 C      -27.1539    19.3592    -1.2638 C.3   142 CCL4   0.3246 
 812 CL     -27.0234    19.1134     0.4818 Cl    142 CCL4  -0.0812 
 813 CL     -28.7346    19.9379    -1.6594 Cl    142 CCL4  -0.0812 
 814 CL     -25.9258    20.6452    -1.6853 Cl    142 CCL4  -0.0812 
 815 CL     -23.0471     1.5492    -1.9804 Cl    143 CCL4  -0.0812 
 816 C      -24.0774     0.5677    -2.9425 C.3   143 CCL4   0.3246 
 817 CL     -24.5561     1.4389    -4.4146 Cl    143 CCL4  -0.0812 
 818 CL     -25.4879     0.2110    -1.9726 Cl    143 CCL4  -0.0812 
 819 CL     -23.2781    -0.9153    -3.3563 Cl    143 CCL4  -0.0812 
 820 CL     -18.4878     9.1384    -4.1216 Cl    144 CCL4  -0.0812 
 821 C      -17.8905     7.9360    -3.0150 C.3   144 CCL4   0.3246 
 822 CL     -18.6486     6.3664    -3.4192 Cl    144 CCL4  -0.0812 
 823 CL     -18.3522     8.3432    -1.3124 Cl    144 CCL4  -0.0812 
 824 CL     -16.1268     7.7263    -3.0280 Cl    144 CCL4  -0.0812 
 825 CL     -28.7790     4.4715    -1.2069 Cl    145 CCL4  -0.0812 
 826 C      -27.2940     4.7589    -2.1501 C.3   145 CCL4   0.3246 
 827 CL     -27.6650     4.4247    -3.8355 Cl    145 CCL4  -0.0812 
 828 CL     -26.0915     3.6920    -1.5004 Cl    145 CCL4  -0.0812 
 829 CL     -26.8679     6.5261    -2.0442 Cl    145 CCL4  -0.0812 
 830 CL     -12.3979     8.9832    -1.7158 Cl    146 CCL4  -0.0812 
 831 C      -11.0487     8.1775    -0.8158 C.3   146 CCL4   0.3246 
 832 CL      -9.4510     8.5679    -1.6385 Cl    146 CCL4  -0.0812 
 833 CL     -11.2999     6.4190    -0.8786 Cl    146 CCL4  -0.0812 
 834 CL     -11.0424     8.8634     0.8490 Cl    146 CCL4  -0.0812 
 835 CL     -30.4771     4.1941    -7.9320 Cl    147 CCL4  -0.0812 
 836 C      -31.5723     3.2318    -6.9970 C.3   147 CCL4   0.3246 
 837 CL     -33.2587     3.5244    -7.4625 Cl    147 CCL4  -0.0812 
 838 CL     -31.4956     3.7927    -5.3623 Cl    147 CCL4  -0.0812 
 839 CL     -31.1546     1.5190    -7.1073 Cl    147 CCL4  -0.0812 
 840 CL     -13.9627    -1.8063    -9.3610 Cl    148 CCL4  -0.0812 
 841 C      -12.9604    -3.3123    -9.1620 C.3   148 CCL4   0.3246 
 842 CL     -13.6178    -4.0602    -7.6733 Cl    148 CCL4  -0.0812 
 843 CL     -11.2394    -2.8596    -8.7006 Cl    148 CCL4  -0.0812 
 844 CL     -13.0297    -4.2941   -10.6680 Cl    148 CCL4  -0.0812 
 845 CL      -9.8933    17.4433    -4.8442 Cl    149 CCL4  -0.0812 
 846 C       -9.4473    18.2899    -6.3344 C.3   149 CCL4   0.3246 
 847 CL      -8.7707    19.8832    -5.8417 Cl    149 CCL4  -0.0812 
 848 CL     -11.0426    18.5468    -7.0842 Cl    149 CCL4  -0.0812 
 849 CL      -8.3757    17.4455    -7.4935 Cl    149 CCL4  -0.0812 
 850 CL     -27.2838    -1.1874     0.4062 Cl    150 CCL4  -0.0812 
 851 C      -28.5658    -0.0988     1.0350 C.3   150 CCL4   0.3246 
 852 CL     -28.7928    -0.6328     2.7452 Cl    150 CCL4  -0.0812 
 853 CL     -30.0135    -0.2233     0.0659 Cl    150 CCL4  -0.0812 
 854 CL     -28.0410     1.6043     1.0092 Cl    150 CCL4  -0.0812 
 855 CL      12.5215     0.2502     3.8743 Cl    151 CCL4  -0.0812 
 856 C       14.1674     0.7024     3.9999 C.3   151 CCL4   0.3246 
 857 CL      14.4714     2.4537     4.2222 Cl    151 CCL4  -0.0812 
 858 CL      15.0124     0.1676     2.5239 Cl    151 CCL4  -0.0812 
 859 CL      14.9227    -0.2068     5.2473 Cl    151 CCL4  -0.0812 
 860 CL     -24.8298    12.4080   -13.5199 Cl    152 CCL4  -0.0812 
 861 C      -25.5202    11.2778   -12.3235 C.3   152 CCL4   0.3246 
 862 CL     -26.6562    10.1825   -13.3223 Cl    152 CCL4  -0.0812 
 863 CL     -26.4729    12.3266   -11.1725 Cl    152 CCL4  -0.0812 
 864 CL     -24.3514    10.2088   -11.5591 Cl    152 CCL4  -0.0812 
 865 CL     -25.5261    16.4103    -6.1383 Cl    153 CCL4  -0.0812 
 866 C      -25.9142    16.0947    -7.8952 C.3   153 CCL4   0.3246 
 867 CL     -27.1132    14.6733    -7.9119 Cl    153 CCL4  -0.0812 
 868 CL     -24.3710    15.5075    -8.6581 Cl    153 CCL4  -0.0812 
 869 CL     -26.5582    17.4760    -8.6449 Cl    153 CCL4  -0.0812 
 870 CL     -29.4399    15.1535   -10.7224 Cl    154 CCL4  -0.0812 
 871 C      -30.5645    14.3624    -9.6260 C.3   154 CCL4   0.3246 
 872 CL     -30.1654    12.6811    -9.3698 Cl    154 CCL4  -0.0812 
 873 CL     -32.2087    14.4848   -10.3725 Cl    154 CCL4  -0.0812 
 874 CL     -30.5734    15.1223    -8.0017 Cl    154 CCL4  -0.0812 
 875 CL      -9.4037    12.0422     0.0675 Cl    155 CCL4  -0.0812 
 876 C       -9.4858    12.8038     1.6216 C.3   155 CCL4   0.3246 
 877 CL     -10.3056    11.7413     2.8245 Cl    155 CCL4  -0.0812 
 878 CL     -10.3696    14.2861     1.4857 Cl    155 CCL4  -0.0812 
 879 CL      -7.8212    13.0912     2.2174 Cl    155 CCL4  -0.0812 
 880 CL     -24.7124    15.3856   -15.0851 Cl    156 CCL4  -0.0812 
 881 C      -25.7039    16.2159   -13.8061 C.3   156 CCL4   0.3246 
 882 CL     -25.6261    15.5378   -12.2086 Cl    156 CCL4  -0.0812 
 883 CL     -27.4297    16.3112   -14.1889 Cl    156 CCL4  -0.0812 
 884 CL     -25.0939    17.9114   -13.7715 Cl    156 CCL4  -0.0812 
 885 CL     -30.3075    20.8198    -5.9451 Cl    157 CCL4  -0.0812 
 886 C      -29.7622    19.1287    -6.2369 C.3   157 CCL4   0.3246 
 887 CL     -30.7223    18.0299    -5.2596 Cl    157 CCL4  -0.0812 
 888 CL     -28.0975    18.8537    -5.8364 Cl    157 CCL4  -0.0812 
 889 CL     -29.9537    18.6962    -7.9151 Cl    157 CCL4  -0.0812 
 890 CL     -32.1440    17.1414   -16.7233 Cl    158 CCL4  -0.0812 
 891 C      -32.5464    17.0139   -14.9144 C.3   158 CCL4   0.3246 
 892 CL     -33.3567    15.4002   -14.7279 Cl    158 CCL4  -0.0812 
 893 CL     -33.8704    18.1736   -14.5760 Cl    158 CCL4  -0.0812 
 894 CL     -31.1080    17.0268   -13.9575 Cl    158 CCL4  -0.0812 
 895 CL     -29.7473    10.5986   -14.9706 Cl    159 CCL4  -0.0812 
 896 C      -29.4866    12.3111   -15.0657 C.3   159 CCL4   0.3246 
 897 CL     -30.6086    13.1659   -16.0299 Cl    159 CCL4  -0.0812 
 898 CL     -27.7632    12.5087   -15.8370 Cl    159 CCL4  -0.0812 
 899 CL     -29.2478    12.9930   -13.4071 Cl    159 CCL4  -0.0812 
 900 CL     -11.1590     8.8987    -7.6914 Cl    160 CCL4  -0.0812 
 901 C      -12.1212     9.6897    -6.4298 C.3   160 CCL4   0.3246 
 902 CL     -11.0897    10.3052    -5.1276 Cl    160 CCL4  -0.0812 
 903 CL     -13.3366     8.7079    -5.6922 Cl    160 CCL4  -0.0812 
 904 CL     -12.8309    11.2905    -7.1870 Cl    160 CCL4  -0.0812 
 905 CL     -10.3891    14.4196    -9.0113 Cl    161 CCL4  -0.0812 
 906 C      -11.2025    15.0437   -10.3672 C.3   161 CCL4   0.3246 
 907 CL     -12.7829    14.2240   -10.4733 Cl    161 CCL4  -0.0812 
 908 CL     -10.4740    14.7260   -11.8681 Cl    161 CCL4  -0.0812 
 909 CL     -11.4215    16.7432   -10.0706 Cl    161 CCL4  -0.0812 
 910 CL     -21.2857    15.4452    -1.7074 Cl    162 CCL4  -0.0812 
 911 C      -22.8705    15.4356    -0.9062 C.3   162 CCL4   0.3246 
 912 CL     -23.0074    14.2260     0.4104 Cl    162 CCL4  -0.0812 
 913 CL     -24.2169    15.1992    -2.1450 Cl    162 CCL4  -0.0812 
 914 CL     -23.2289    17.1184    -0.3528 Cl    162 CCL4  -0.0812 
 915 CL     -23.9415    13.2473    -5.6585 Cl    163 CCL4  -0.0812 
 916 C      -23.2838    12.0341    -6.7835 C.3   163 CCL4   0.3246 
 917 CL     -24.4262    11.6220    -8.0331 Cl    163 CCL4  -0.0812 
 918 CL     -22.7895    10.6190    -5.9502 Cl    163 CCL4  -0.0812 
 919 CL     -21.9441    12.7446    -7.6629 Cl    163 CCL4  -0.0812 
 920 CL     -19.4200    15.1147    -7.1893 Cl    164 CCL4  -0.0812 
 921 C      -19.9151    14.9115    -5.3849 C.3   164 CCL4   0.3246 
 922 CL     -21.5926    15.6099    -5.0899 Cl    164 CCL4  -0.0812 
 923 CL     -18.6887    15.8569    -4.4017 Cl    164 CCL4  -0.0812 
 924 CL     -19.8202    13.2088    -4.9049 Cl    164 CCL4  -0.0812 
 925 CL     -28.4226    10.1307    -0.5773 Cl    165 CCL4  -0.0812 
 926 C      -29.9466     9.7211    -1.3566 C.3   165 CCL4   0.3246 
 927 CL     -31.3399    10.4658    -0.6341 Cl    165 CCL4  -0.0812 
 928 CL     -30.1050     7.9396    -1.3813 Cl    165 CCL4  -0.0812 
 929 CL     -29.8636    10.2210    -3.0171 Cl    165 CCL4  -0.0812 
 930 CL     -28.5306    15.3427    -4.1513 Cl    166 CCL4  -0.0812 
 931 C      -28.8891    13.5584    -4.1359 C.3   166 CCL4   0.3246 
 932 CL     -30.0362    12.9848    -5.3150 Cl    166 CCL4  -0.0812 
 933 CL     -29.6527    13.3247    -2.4842 Cl    166 CCL4  -0.0812 
 934 CL     -27.4015    12.5500    -4.1931 Cl    166 CCL4  -0.0812 
 935 CL     -12.8738    17.3014    -2.2580 Cl    167 CCL4  -0.0812 
 936 C      -11.8925    16.4772    -1.0667 C.3   167 CCL4   0.3246 
 937 CL     -11.3082    14.9721    -1.7973 Cl    167 CCL4  -0.0812 
 938 CL     -12.8328    16.1768     0.2840 Cl    167 CCL4  -0.0812 
 939 CL     -10.4356    17.5198    -0.7000 Cl    167 CCL4  -0.0812 
 940 CL     -22.2035    21.0261    -4.6077 Cl    168 CCL4  -0.0812 
 941 C      -22.0860    19.2655    -4.7571 C.3   168 CCL4   0.3246 
 942 CL     -20.4767    18.7516    -4.3358 Cl    168 CCL4  -0.0812 
 943 CL     -22.1666    18.8129    -6.4893 Cl    168 CCL4  -0.0812 
 944 CL     -23.2454    18.4879    -3.7089 Cl    168 CCL4  -0.0812 
 945 CL     -31.9902    17.8610    -1.7306 Cl    169 CCL4  -0.0812 
 946 C      -31.4513    16.7882    -0.3264 C.3   169 CCL4   0.3246 
 947 CL     -32.2826    15.2452    -0.4107 Cl    169 CCL4  -0.0812 
 948 CL     -31.9360    17.5994     1.1493 Cl    169 CCL4  -0.0812 
 949 CL     -29.6350    16.5676    -0.5404 Cl    169 CCL4  -0.0812 
 950 CL     -26.5835    13.0076    -0.6012 Cl    170 CCL4  -0.0812 
 951 C      -27.0325    13.4973     1.0464 C.3   170 CCL4   0.3246 
 952 CL     -26.3556    12.0819     1.9808 Cl    170 CCL4  -0.0812 
 953 CL     -28.8107    13.5642     1.2694 Cl    170 CCL4  -0.0812 
 954 CL     -26.3546    15.0589     1.4931 Cl    170 CCL4  -0.0812 
 955 CL     -22.3403     9.9327    -0.0344 Cl    171 CCL4  -0.0812 
 956 C      -22.9742    10.0653    -1.6933 C.3   171 CCL4   0.3246 
 957 CL     -21.9648     9.2519    -2.8799 Cl    171 CCL4  -0.0812 
 958 CL     -23.1850    11.8624    -2.1482 Cl    171 CCL4  -0.0812 
 959 CL     -24.5353     9.3147    -1.7937 Cl    171 CCL4  -0.0812 
 960 CL     -15.8822    15.4595    -6.4329 Cl    172 CCL4  -0.0812 
 961 C      -14.2483    15.8498    -5.8490 C.3   172 CCL4   0.3246 
 962 CL     -14.1320    17.6219    -5.5416 Cl    172 CCL4  -0.0812 
 963 CL     -13.0257    15.3387    -7.0658 Cl    172 CCL4  -0.0812 
 964 CL     -13.9606    15.1194    -4.2651 Cl    172 CCL4  -0.0812 
 965 CL      14.0814    12.4374    -3.3555 Cl    173 CCL4  -0.0812 
 966 C       13.9905    13.3000    -4.9127 C.3   173 CCL4   0.3246 
 967 CL      14.8188    14.9409    -4.9166 Cl    173 CCL4  -0.0812 
 968 CL      12.2634    13.8151    -5.0870 Cl    173 CCL4  -0.0812 
 969 CL      14.5879    12.3342    -6.3133 Cl    173 CCL4  -0.0812 
 970 CL     -32.4659     8.9559    -4.5856 Cl    174 CCL4  -0.0812 
 971 C      -31.3821     8.3578    -5.8546 C.3   174 CCL4   0.3246 
 972 CL     -32.3285     7.0262    -6.5587 Cl    174 CCL4  -0.0812 
 973 CL     -30.0500     7.5058    -5.0412 Cl    174 CCL4  -0.0812 
 974 CL     -30.8744     9.6091    -7.0224 Cl    174 CCL4  -0.0812 
 975 CL     -19.1439    12.4350    -0.4560 Cl    175 CCL4  -0.0812 
 976 C      -19.0326    12.2521     1.2827 C.3   175 CCL4   0.3246 
 977 CL     -17.3515    12.9323     1.7156 Cl    175 CCL4  -0.0812 
 978 CL     -19.1402    10.4962     1.6748 Cl    175 CCL4  -0.0812 
 979 CL     -20.2266    13.1877     2.1624 Cl    175 CCL4  -0.0812 
 980 CL     -16.8707    10.5499   -15.0260 Cl    176 CCL4  -0.0812 
 981 C      -16.3396    11.8973   -14.0458 C.3   176 CCL4   0.3246 
 982 CL     -16.5866    13.4643   -14.9436 Cl    176 CCL4  -0.0812 
 983 CL     -14.5874    11.6665   -13.7873 Cl    176 CCL4  -0.0812 
 984 CL     -17.2740    11.9492   -12.4725 Cl    176 CCL4  -0.0812 
 985 CL     -18.7045     4.7432   -12.1317 Cl    177 CCL4  -0.0812 
 986 C      -19.2546     3.3712   -11.1739 C.3   177 CCL4   0.3246 
 987 CL     -20.2411     3.9230    -9.8086 Cl    177 CCL4  -0.0812 
 988 CL     -17.8248     2.5714   -10.5723 Cl    177 CCL4  -0.0812 
 989 CL     -20.2914     2.3024   -12.2412 Cl    177 CCL4  -0.0812 
 990 CL     -13.8633     6.8331    24.0660 Cl    178 CCL4  -0.0812 
 991 C      -12.3915     7.7911    23.9616 C.3   178 CCL4   0.3246 
 992 CL     -10.9110     6.7754    24.0963 Cl    178 CCL4  -0.0812 
 993 CL     -12.3056     9.0778    25.1454 Cl    178 CCL4  -0.0812 
 994 CL     -12.2709     8.6215    22.3613 Cl    178 CCL4  -0.0812 
 995 CL     -14.8641     1.5159   -12.1794 Cl    179 CCL4  -0.0812 
 996 C      -14.1410     3.0986   -12.1417 C.3   179 CCL4   0.3246 
 997 CL     -13.8086     3.4651   -10.3540 Cl    179 CCL4  -0.0812 
 998 CL     -15.2786     4.3638   -12.6663 Cl    179 CCL4  -0.0812 
 999 CL     -12.6567     3.2933   -13.0708 Cl    179 CCL4  -0.0812 
1000 CL     -13.2380    10.2994   -10.8676 Cl    180 CCL4  -0.0812 
1001 C      -13.7762     8.5385   -10.9524 C.3   180 CCL4   0.3246 
1002 CL     -15.2289     8.5402   -12.0212 Cl    180 CCL4  -0.0812 
1003 CL     -14.0803     7.9426    -9.3288 Cl    180 CCL4  -0.0812 
1004 CL     -12.4170     7.5500   -11.5555 Cl    180 CCL4  -0.0812 
1005 CL     -17.9052     4.1829   -15.9576 Cl    181 CCL4  -0.0812 
1006 C      -17.0376     2.6982   -15.9025 C.3   181 CCL4   0.3246 
1007 CL     -17.5567     1.4601   -17.1151 Cl    181 CCL4  -0.0812 
1008 CL     -17.3926     1.8924   -14.2183 Cl    181 CCL4  -0.0812 
1009 CL     -15.2422     2.8547   -15.9453 Cl    181 CCL4  -0.0812 
1010 CL     -19.3892    -0.9035   -13.9292 Cl    182 CCL4  -0.0812 
1011 C      -19.0150    -1.7218   -12.4142 C.3   182 CCL4   0.3246 
1012 CL     -17.7188    -0.9047   -11.5623 Cl    182 CCL4  -0.0812 
1013 CL     -18.4751    -3.4128   -12.7097 Cl    182 CCL4  -0.0812 
1014 CL     -20.4993    -1.9264   -11.3320 Cl    182 CCL4  -0.0812 
1015 CL     -17.5250    16.7485   -10.2852 Cl    183 CCL4  -0.0812 
1016 C      -15.8852    17.1896   -10.7848 C.3   183 CCL4   0.3246 
1017 CL     -14.9490    17.5527    -9.4095 Cl    183 CCL4  -0.0812 
1018 CL     -15.9616    18.7144   -11.6785 Cl    183 CCL4  -0.0812 
1019 CL     -15.2769    15.8507   -11.7434 Cl    183 CCL4  -0.0812 
1020 CL     -20.1364    16.7176   -16.2758 Cl    184 CCL4  -0.0812 
1021 C      -18.4520    16.9692   -15.8068 C.3   184 CCL4   0.3246 
1022 CL     -18.1523    16.3488   -14.1890 Cl    184 CCL4  -0.0812 
1023 CL     -18.3227    18.7932   -15.7987 Cl    184 CCL4  -0.0812 
1024 CL     -17.4547    16.1572   -17.1342 Cl    184 CCL4  -0.0812 
1025 CL     -15.1629    -4.0566   -15.6577 Cl    185 CCL4  -0.0812 
1026 C      -15.0790    -2.5677   -14.7198 C.3   185 CCL4   0.3246 
1027 CL     -15.0769    -2.7673   -13.0187 Cl    185 CCL4  -0.0812 
1028 CL     -16.3642    -1.4550   -15.1927 Cl    185 CCL4  -0.0812 
1029 CL     -13.6593    -1.5046   -15.2361 Cl    185 CCL4  -0.0812 
1030 CL     -15.4730     4.2778    -6.7334 Cl    186 CCL4  -0.0812 
1031 C      -16.7313     5.3685    -7.3801 C.3   186 CCL4   0.3246 
1032 CL     -18.4376     4.6646    -6.8519 Cl    186 CCL4  -0.0812 
1033 CL     -16.7109     5.4404    -9.1516 Cl    186 CCL4  -0.0812 
1034 CL     -16.8026     6.9740    -6.5957 Cl    186 CCL4  -0.0812 
1035 CL     -19.4590     8.4912    -8.3155 Cl    187 CCL4  -0.0812 
1036 C      -20.1369     8.8408    -9.8788 C.3   187 CCL4   0.3246 
1037 CL     -20.9553     7.3434   -10.3103 Cl    187 CCL4  -0.0812 
1038 CL     -19.0026     9.2522   -11.2120 Cl    187 CCL4  -0.0812 
1039 CL     -21.3770    10.1240    -9.8511 Cl    187 CCL4  -0.0812 
1040 CL     -17.1075     1.3206    -5.8410 Cl    188 CCL4  -0.0812 
1041 C      -15.6286     0.6370    -6.5305 C.3   188 CCL4   0.3246 
1042 CL     -15.4140     1.3997    -8.1695 Cl    188 CCL4  -0.0812 
1043 CL     -15.7331    -1.1146    -6.6417 Cl    188 CCL4  -0.0812 
1044 CL     -14.2168     1.0246    -5.5456 Cl    188 CCL4  -0.0812 
1045 CL     -14.6126    -4.3328    -2.4288 Cl    189 CCL4  -0.0812 
1046 C      -13.1294    -3.5240    -3.0242 C.3   189 CCL4   0.3246 
1047 CL     -13.6580    -2.3072    -4.2229 Cl    189 CCL4  -0.0812 
1048 CL     -12.0269    -4.7212    -3.6949 Cl    189 CCL4  -0.0812 
1049 CL     -12.3070    -2.8555    -1.6261 Cl    189 CCL4  -0.0812 
1050 CL     -32.1274     2.8756    -1.6651 Cl    190 CCL4  -0.0812 
1051 C      -32.5555     3.8771    -0.2910 C.3   190 CCL4   0.3246 
1052 CL     -32.9275     5.5550    -0.7230 Cl    190 CCL4  -0.0812 
1053 CL     -34.1211     3.3067     0.4136 Cl    190 CCL4  -0.0812 
1054 CL     -31.3128     3.7653     0.9877 Cl    190 CCL4  -0.0812 
1055 CL     -18.8889    21.5621    -7.0340 Cl    191 CCL4  -0.0812 
1056 C      -17.6187    20.3169    -7.1847 C.3   191 CCL4   0.3246 
1057 CL     -16.6369    20.3118    -5.6866 Cl    191 CCL4  -0.0812 
1058 CL     -16.7644    20.7024    -8.7621 Cl    191 CCL4  -0.0812 
1059 CL     -18.3350    18.6810    -7.2752 Cl    191 CCL4  -0.0812 
1060 CL     -19.0264    18.2782    -0.8705 Cl    192 CCL4  -0.0812 
1061 C      -17.3639    17.6812    -1.0374 C.3   192 CCL4   0.3246 
1062 CL     -16.7826    18.3388    -2.6201 Cl    192 CCL4  -0.0812 
1063 CL     -17.2376    15.9524    -0.8790 Cl    192 CCL4  -0.0812 
1064 CL     -16.4077    18.4437     0.3197 Cl    192 CCL4  -0.0812 
1065 CL     -15.2778     3.1600     1.3934 Cl    193 CCL4  -0.0812 
1066 C      -16.3077     3.9354     0.1384 C.3   193 CCL4   0.3246 
1067 CL     -17.3580     2.7048    -0.5614 Cl    193 CCL4  -0.0812 
1068 CL     -15.3531     4.7381    -1.1104 Cl    193 CCL4  -0.0812 
1069 CL     -17.3384     5.1321     1.0922 Cl    193 CCL4  -0.0812 
1070 CL     -19.8785    -0.6671    -1.8709 Cl    194 CCL4  -0.0812 
1071 C      -18.7641    -1.3007    -3.1733 C.3   194 CCL4   0.3246 
1072 CL     -18.5576    -3.0332    -2.9693 Cl    194 CCL4  -0.0812 
1073 CL     -17.3188    -0.3980    -2.8108 Cl    194 CCL4  -0.0812 
1074 CL     -19.4201    -0.8010    -4.7359 Cl    194 CCL4  -0.0812 
1075 CL     -17.3224    -0.5815     1.5539 Cl    195 CCL4  -0.0812 
1076 C      -16.6539    -2.2391     1.2986 C.3   195 CCL4   0.3246 
1077 CL     -15.0813    -2.1484     0.5507 Cl    195 CCL4  -0.0812 
1078 CL     -17.7119    -3.1885     0.2273 Cl    195 CCL4  -0.0812 
1079 CL     -16.3857    -2.9345     2.9571 Cl    195 CCL4  -0.0812 
1080 CL     -13.7354    11.9023    -3.1541 Cl    196 CCL4  -0.0812 
1081 C      -15.0823    12.2445    -2.1224 C.3   196 CCL4   0.3246 
1082 CL     -16.4129    12.9557    -3.0489 Cl    196 CCL4  -0.0812 
1083 CL     -14.5767    13.6796    -1.1879 Cl    196 CCL4  -0.0812 
1084 CL     -15.7721    10.9044    -1.0897 Cl    196 CCL4  -0.0812 
1085 CL     -19.0485    16.0397     4.3645 Cl    197 CCL4  -0.0812 
1086 C      -20.0775    17.2959     3.7702 C.3   197 CCL4   0.3246 
1087 CL     -19.0309    18.3150     2.7509 Cl    197 CCL4  -0.0812 
1088 CL     -20.8947    18.1480     5.1849 Cl    197 CCL4  -0.0812 
1089 CL     -21.4323    16.6155     2.7855 Cl    197 CCL4  -0.0812 
1090 CL     -20.4805    10.1774    23.2326 Cl    198 CCL4  -0.0812 
1091 C      -20.9058    11.9753    22.8613 C.3   198 CCL4   0.3246 
1092 CL     -19.9960    13.0919    23.8723 Cl    198 CCL4  -0.0812 
1093 CL     -22.6402    12.1961    23.2800 Cl    198 CCL4  -0.0812 
1094 CL     -20.5095    12.3302    21.1962 Cl    198 CCL4  -0.0812 
1095 CL     -15.8586    12.9862    -8.8192 Cl    199 CCL4  -0.0812 
1096 C      -16.8762    11.7241    -8.0276 C.3   199 CCL4   0.3246 
1097 CL     -16.5263    11.6292    -6.2699 Cl    199 CCL4  -0.0812 
1098 CL     -16.5606    10.1238    -8.7112 Cl    199 CCL4  -0.0812 
1099 CL     -18.6401    12.0263    -8.3646 Cl    199 CCL4  -0.0812 
1100 CL     -21.5887    14.9346   -13.4370 Cl    200 CCL4  -0.0812 
1101 C      -21.1563    13.6689   -12.2943 C.3   200 CCL4   0.3246 
1102 CL     -22.4581    13.6970   -11.1520 Cl    200 CCL4  -0.0812 
1103 CL     -19.5848    14.0314   -11.3978 Cl    200 CCL4  -0.0812 
1104 CL     -20.8971    12.1521   -13.0694 Cl    200 CCL4  -0.0812 
1105 CL     -21.2873    18.3553   -12.2479 Cl    201 CCL4  -0.0812 
1106 C      -21.6621    18.5622   -10.5655 C.3   201 CCL4   0.3246 
1107 CL     -20.7186    19.9861   -10.0515 Cl    201 CCL4  -0.0812 
1108 CL     -21.1550    17.1280    -9.6901 Cl    201 CCL4  -0.0812 
1109 CL     -23.3424    18.8661   -10.1878 Cl    201 CCL4  -0.0812 
1110 CL      13.8863     9.2396    11.7745 Cl    202 CCL4  -0.0812 
1111 C       13.6520    10.8811    12.4387 C.3   202 CCL4   0.3246 
1112 CL      12.1572    11.5080    11.7305 Cl    202 CCL4  -0.0812 
1113 CL      15.0749    11.9376    12.2162 Cl    202 CCL4  -0.0812 
1114 CL      13.4403    10.6703    14.2021 Cl    202 CCL4  -0.0812 
1115 CL     -22.0450     7.2854     8.6337 Cl    203 CCL4  -0.0812 
1116 C      -21.5436     7.2852    10.2542 C.3   203 CCL4   0.3246 
1117 CL     -21.8801     5.7896    11.0389 Cl    203 CCL4  -0.0812 
1118 CL     -22.1018     8.6406    11.1403 Cl    203 CCL4  -0.0812 
1119 CL     -19.7516     7.4117    10.2319 Cl    203 CCL4  -0.0812 
1120 CL     -24.1602    -1.8842    14.4214 Cl    204 CCL4  -0.0812 
1121 C      -24.7580    -0.8663    13.0262 C.3   204 CCL4   0.3246 
1122 CL     -25.9966    -1.6451    11.9436 Cl    204 CCL4  -0.0812 
1123 CL     -23.3805    -0.3055    12.0271 Cl    204 CCL4  -0.0812 
1124 CL     -25.4889     0.6724    13.7667 Cl    204 CCL4  -0.0812 
1125 CL     -29.8919     9.5919    13.6682 Cl    205 CCL4  -0.0812 
1126 C      -29.6056     7.8370    13.7954 C.3   205 CCL4   0.3246 
1127 CL     -29.8504     7.3218    15.4862 Cl    205 CCL4  -0.0812 
1128 CL     -28.0665     7.2376    13.2319 Cl    205 CCL4  -0.0812 
1129 CL     -30.8597     7.0238    12.8275 Cl    205 CCL4  -0.0812 
1130 CL     -28.4425    18.4740    13.8506 Cl    206 CCL4  -0.0812 
1131 C      -27.9083    20.0354    13.1652 C.3   206 CCL4   0.3246 
1132 CL     -28.8365    21.4504    13.6989 Cl    206 CCL4  -0.0812 
1133 CL     -27.7617    20.0456    11.4177 Cl    206 CCL4  -0.0812 
1134 CL     -26.2748    20.3011    13.8223 Cl    206 CCL4  -0.0812 
1135 CL     -24.4461     6.6743    13.5009 Cl    207 CCL4  -0.0812 
1136 C      -24.9546     4.9470    13.7171 C.3   207 CCL4   0.3246 
1137 CL     -23.5276     4.0036    14.1813 Cl    207 CCL4  -0.0812 
1138 CL     -25.6157     4.2643    12.2647 Cl    207 CCL4  -0.0812 
1139 CL     -26.0503     4.8316    15.1680 Cl    207 CCL4  -0.0812 
1140 CL     -29.5517    -1.2034     9.6044 Cl    208 CCL4  -0.0812 
1141 C      -31.3331    -1.7293     9.7536 C.3   208 CCL4   0.3246 
1142 CL     -31.3485    -3.4224     9.9599 Cl    208 CCL4  -0.0812 
1143 CL     -32.3024    -1.2976     8.2659 Cl    208 CCL4  -0.0812 
1144 CL     -31.9945    -0.7994    11.1765 Cl    208 CCL4  -0.0812 
1145 CL     -25.3624    -1.2923    17.5081 Cl    209 CCL4  -0.0812 
1146 C      -25.8633    -2.9282    17.8635 C.3   209 CCL4   0.3246 
1147 CL     -24.6308    -4.0587    17.3204 Cl    209 CCL4  -0.0812 
1148 CL     -27.3007    -3.3374    16.9093 Cl    209 CCL4  -0.0812 
1149 CL     -26.1928    -3.0911    19.5500 Cl    209 CCL4  -0.0812 
1150 CL     -29.0396    -0.5690    13.4463 Cl    210 CCL4  -0.0812 
1151 C      -29.7835    -0.0784    14.9975 C.3   210 CCL4   0.3246 
1152 CL     -28.5596     0.4103    16.0703 Cl    210 CCL4  -0.0812 
1153 CL     -30.6604    -1.4919    15.6135 Cl    210 CCL4  -0.0812 
1154 CL     -30.9740     1.2643    14.6927 Cl    210 CCL4  -0.0812 
1155 CL     -12.8958    15.0932    10.9600 Cl    211 CCL4  -0.0812 
1156 C      -12.9411    16.7134    10.2777 C.3   211 CCL4   0.3246 
1157 CL     -12.6960    17.9877    11.6349 Cl    211 CCL4  -0.0812 
1158 CL     -14.5565    17.1091     9.6226 Cl    211 CCL4  -0.0812 
1159 CL     -11.7747    17.1390     9.0219 Cl    211 CCL4  -0.0812 
1160 CL     -20.9157    21.2063     9.5930 Cl    212 CCL4  -0.0812 
1161 C      -22.7145    20.7908     9.5887 C.3   212 CCL4   0.3246 
1162 CL     -22.9249    19.0914     8.9809 Cl    212 CCL4  -0.0812 
1163 CL     -23.5576    21.9124     8.5376 Cl    212 CCL4  -0.0812 
1164 CL     -23.3855    21.0738    11.2533 Cl    212 CCL4  -0.0812 
1165 CL     -28.9989    18.8650     8.5544 Cl    213 CCL4  -0.0812 
1166 C      -27.4773    19.1541     7.6965 C.3   213 CCL4   0.3246 
1167 CL     -27.1411    20.9260     8.1356 Cl    213 CCL4  -0.0812 
1168 CL     -27.7117    19.0863     5.9461 Cl    213 CCL4  -0.0812 
1169 CL     -26.1170    18.0682     8.0796 Cl    213 CCL4  -0.0812 
1170 CL     -10.4268    -2.6624     9.8345 Cl    214 CCL4  -0.0812 
1171 C      -10.5954    -3.3900     8.2205 C.3   214 CCL4   0.3246 
1172 CL     -11.9581    -4.5544     8.1242 Cl    214 CCL4  -0.0812 
1173 CL      -9.0020    -4.0224     7.7926 Cl    214 CCL4  -0.0812 
1174 CL     -10.9406    -2.0032     7.1156 Cl    214 CCL4  -0.0812 
1175 CL     -19.9892     4.8723     3.9600 Cl    215 CCL4  -0.0812 
1176 C      -18.9885     3.5462     4.7137 C.3   215 CCL4   0.3246 
1177 CL     -18.5713     2.4675     3.3700 Cl    215 CCL4  -0.0812 
1178 CL     -19.9247     2.7495     5.9512 Cl    215 CCL4  -0.0812 
1179 CL     -17.5609     4.2752     5.4571 Cl    215 CCL4  -0.0812 
1180 CL     -22.8151     4.1474     7.7156 Cl    216 CCL4  -0.0812 
1181 C      -23.0626     2.5767     8.4813 C.3   216 CCL4   0.3246 
1182 CL     -24.4414     2.6129     9.5648 Cl    216 CCL4  -0.0812 
1183 CL     -21.6056     2.0907     9.4265 Cl    216 CCL4  -0.0812 
1184 CL     -23.2853     1.2966     7.2023 Cl    216 CCL4  -0.0812 
1185 CL     -29.6164     2.3726     4.5344 Cl    217 CCL4  -0.0812 
1186 C      -29.1448     1.7793     6.1448 C.3   217 CCL4   0.3246 
1187 CL     -30.3249     2.3619     7.3039 Cl    217 CCL4  -0.0812 
1188 CL     -27.6078     2.5226     6.5971 Cl    217 CCL4  -0.0812 
1189 CL     -28.9398     0.0271     6.0704 Cl    217 CCL4  -0.0812 
1190 CL     -26.0179     8.7619     7.7676 Cl    218 CCL4  -0.0812 
1191 C      -26.4039     7.3067     8.8156 C.3   218 CCL4   0.3246 
1192 CL     -28.1075     7.3321     9.4261 Cl    218 CCL4  -0.0812 
1193 CL     -25.2775     7.1622    10.2142 Cl    218 CCL4  -0.0812 
1194 CL     -26.0207     5.9033     7.7866 Cl    218 CCL4  -0.0812 
1195 CL     -33.1871     5.2873     6.9545 Cl    219 CCL4  -0.0812 
1196 C      -31.9418     6.2209     7.7904 C.3   219 CCL4   0.3246 
1197 CL     -32.1318     5.7657     9.5877 Cl    219 CCL4  -0.0812 
1198 CL     -32.3157     8.0154     7.8946 Cl    219 CCL4  -0.0812 
1199 CL     -30.4307     5.7148     7.2006 Cl    219 CCL4  -0.0812 
1200 CL     -28.1667     1.6928    10.6840 Cl    220 CCL4  -0.0812 
1201 C      -29.1809     2.9321    11.4079 C.3   220 CCL4   0.3246 
1202 CL     -28.8515     4.4572    10.5643 Cl    220 CCL4  -0.0812 
1203 CL     -28.5600     3.1761    13.1260 Cl    220 CCL4  -0.0812 
1204 CL     -30.8563     2.4056    11.3806 Cl    220 CCL4  -0.0812 
1205 CL      -8.9390     7.1209    14.5978 Cl    221 CCL4  -0.0812 
1206 C       -9.2682     5.4933    13.9411 C.3   221 CCL4   0.3246 
1207 CL     -10.5192     4.6544    14.8275 Cl    221 CCL4  -0.0812 
1208 CL      -7.8759     4.4904    14.1749 Cl    221 CCL4  -0.0812 
1209 CL      -9.6811     5.7421    12.1904 Cl    221 CCL4  -0.0812 
1210 CL      -8.6541    -0.8994    14.3966 Cl    222 CCL4  -0.0812 
1211 C      -10.1196    -0.0236    13.8719 C.3   222 CCL4   0.3246 
1212 CL      -9.5546     1.2202    12.7191 Cl    222 CCL4  -0.0812 
1213 CL     -11.0118     0.7252    15.1706 Cl    222 CCL4  -0.0812 
1214 CL     -11.2210    -1.1099    12.8866 Cl    222 CCL4  -0.0812 
1215 CL      15.5338    20.7983    13.0528 Cl    223 CCL4  -0.0812 
1216 C       14.1768    20.0355    13.9422 C.3   223 CCL4   0.3246 
1217 CL      12.6580    20.6181    13.1799 Cl    223 CCL4  -0.0812 
1218 CL      14.1859    20.6269    15.5928 Cl    223 CCL4  -0.0812 
1219 CL      14.4452    18.2981    13.8471 Cl    223 CCL4  -0.0812 
1220 CL     -30.4037    21.3843     6.2759 Cl    224 CCL4  -0.0812 
1221 C      -31.1310    20.6169     4.7744 C.3   224 CCL4   0.3246 
1222 CL     -32.4342    21.6263     4.0854 Cl    224 CCL4  -0.0812 
1223 CL     -31.3161    18.8818     4.9550 Cl    224 CCL4  -0.0812 
1224 CL     -29.6587    20.7363     3.6313 Cl    224 CCL4  -0.0812 
1225 CL     -29.5545     1.1643    22.0684 Cl    225 CCL4  -0.0812 
1226 C      -29.0823    -0.3017    21.0786 C.3   225 CCL4   0.3246 
1227 CL     -30.6263    -0.8183    20.3258 Cl    225 CCL4  -0.0812 
1228 CL     -28.3048    -1.6219    22.0576 Cl    225 CCL4  -0.0812 
1229 CL     -28.0029     0.2833    19.8214 Cl    225 CCL4  -0.0812 
1230 CL     -23.7953     4.7260    18.2279 Cl    226 CCL4  -0.0812 
1231 C      -22.8944     5.7988    19.3017 C.3   226 CCL4   0.3246 
1232 CL     -21.7345     6.8861    18.4932 Cl    226 CCL4  -0.0812 
1233 CL     -21.9224     4.7141    20.5496 Cl    226 CCL4  -0.0812 
1234 CL     -24.0004     6.7643    20.2813 Cl    226 CCL4  -0.0812 
1235 CL     -24.8725     8.0457    17.0463 Cl    227 CCL4  -0.0812 
1236 C      -26.4465     8.3233    17.9158 C.3   227 CCL4   0.3246 
1237 CL     -26.1733     9.2713    19.3482 Cl    227 CCL4  -0.0812 
1238 CL     -27.1478     6.7061    18.3613 Cl    227 CCL4  -0.0812 
1239 CL     -27.4764     9.2053    16.8641 Cl    227 CCL4  -0.0812 
1240 CL     -19.8639     0.1997    16.6093 Cl    228 CCL4  -0.0812 
1241 C      -21.4023     0.6241    17.1979 C.3   228 CCL4   0.3246 
1242 CL     -22.4841     0.9429    15.7553 Cl    228 CCL4  -0.0812 
1243 CL     -21.3126     2.0740    18.1355 Cl    228 CCL4  -0.0812 
1244 CL     -22.1371    -0.6589    18.1252 Cl    228 CCL4  -0.0812 
1245 CL     -30.4771     4.1941    17.0680 Cl    229 CCL4  -0.0812 
1246 C      -31.5723     3.2318    18.0030 C.3   229 CCL4   0.3246 
1247 CL     -33.2587     3.5244    17.5375 Cl    229 CCL4  -0.0812 
1248 CL     -31.4956     3.7927    19.6377 Cl    229 CCL4  -0.0812 
1249 CL     -31.1546     1.5190    17.8927 Cl    229 CCL4  -0.0812 
1250 CL     -13.9627    -1.8063    15.6390 Cl    230 CCL4  -0.0812 
1251 C      -12.9604    -3.3123    15.8380 C.3   230 CCL4   0.3246 
1252 CL     -13.6178    -4.0602    17.3267 Cl    230 CCL4  -0.0812 
1253 CL     -11.2394    -2.8596    16.2994 Cl    230 CCL4  -0.0812 
1254 CL     -13.0297    -4.2941    14.3320 Cl    230 CCL4  -0.0812 
1255 CL      -9.8933    17.4433    20.1558 Cl    231 CCL4  -0.0812 
1256 C       -9.4473    18.2899    18.6656 C.3   231 CCL4   0.3246 
1257 CL      -8.7707    19.8832    19.1583 Cl    231 CCL4  -0.0812 
1258 CL     -11.0426    18.5468    17.9158 Cl    231 CCL4  -0.0812 
1259 CL      -8.3757    17.4455    17.5065 Cl    231 CCL4  -0.0812 
1260 CL     -24.8298    12.4080    11.4801 Cl    232 CCL4  -0.0812 
1261 C      -25.5202    11.2778    12.6765 C.3   232 CCL4   0.3246 
1262 CL     -26.6562    10.1825    11.6777 Cl    232 CCL4  -0.0812 
1263 CL     -26.4729    12.3266    13.8275 Cl    232 CCL4  -0.0812 
1264 CL     -24.3514    10.2088    13.4409 Cl    232 CCL4  -0.0812 
1265 CL     -25.5261    16.4103    18.8617 Cl    233 CCL4  -0.0812 
1266 C      -25.9142    16.0947    17.1048 C.3   233 CCL4   0.3246 
1267 CL     -27.1132    14.6733    17.0881 Cl    233 CCL4  -0.0812 
1268 CL     -24.3710    15.5075    16.3419 Cl    233 CCL4  -0.0812 
1269 CL     -26.5582    17.4760    16.3551 Cl    233 CCL4  -0.0812 
1270 CL     -29.4399    15.1535    14.2776 Cl    234 CCL4  -0.0812 
1271 C      -30.5645    14.3624    15.3740 C.3   234 CCL4   0.3246 
1272 CL     -30.1654    12.6811    15.6302 Cl    234 CCL4  -0.0812 
1273 CL     -32.2087    14.4848    14.6275 Cl    234 CCL4  -0.0812 
1274 CL     -30.5734    15.1223    16.9983 Cl    234 CCL4  -0.0812 
1275 CL     -24.7124    15.3856     9.9149 Cl    235 CCL4  -0.0812 
1276 C      -25.7039    16.2159    11.1939 C.3   235 CCL4   0.3246 
1277 CL     -25.6261    15.5378    12.7914 Cl    235 CCL4  -0.0812 
1278 CL     -27.4297    16.3112    10.8111 Cl    235 CCL4  -0.0812 
1279 CL     -25.0939    17.9114    11.2285 Cl    235 CCL4  -0.0812 
1280 CL     -11.2894    15.2946     6.0834 Cl    236 CCL4  -0.0812 
1281 C      -10.6775    16.5672     5.0229 C.3   236 CCL4   0.3246 
1282 CL      -9.1740    16.0310     4.2438 Cl    236 CCL4  -0.0812 
1283 CL     -10.2597    18.0963     5.8617 Cl    236 CCL4  -0.0812 
1284 CL     -11.8905    16.8378     3.7423 Cl    236 CCL4  -0.0812 
1285 CL     -23.2618    13.8382     4.5028 Cl    237 CCL4  -0.0812 
1286 C      -23.8991    14.9267     5.7915 C.3   237 CCL4   0.3246 
1287 CL     -25.2215    14.2049     6.7741 Cl    237 CCL4  -0.0812 
1288 CL     -24.4450    16.3776     4.9643 Cl    237 CCL4  -0.0812 
1289 CL     -22.5428    15.4579     6.7433 Cl    237 CCL4  -0.0812 
1290 CL     -29.5449     8.6410     5.7860 Cl    238 CCL4  -0.0812 
1291 C      -29.0327    10.0929     5.0243 C.3   238 CCL4   0.3246 
1292 CL     -29.2331    11.4364     6.1059 Cl    238 CCL4  -0.0812 
1293 CL     -29.8781    10.5028     3.5501 Cl    238 CCL4  -0.0812 
1294 CL     -27.2462    10.0579     4.7088 Cl    238 CCL4  -0.0812 
1295 CL     -29.0766    15.9082     6.5325 Cl    239 CCL4  -0.0812 
1296 C      -29.1311    15.3320     4.8883 C.3   239 CCL4   0.3246 
1297 CL     -29.0244    16.6419     3.6966 Cl    239 CCL4  -0.0812 
1298 CL     -30.6731    14.5814     4.7447 Cl    239 CCL4  -0.0812 
1299 CL     -27.7385    14.3002     4.5542 Cl    239 CCL4  -0.0812 
1300 CL     -32.1440    17.1414     8.2767 Cl    240 CCL4  -0.0812 
1301 C      -32.5464    17.0139    10.0856 C.3   240 CCL4   0.3246 
1302 CL     -33.3567    15.4002    10.2721 Cl    240 CCL4  -0.0812 
1303 CL     -33.8704    18.1736    10.4240 Cl    240 CCL4  -0.0812 
1304 CL     -31.1080    17.0268    11.0425 Cl    240 CCL4  -0.0812 
1305 CL     -29.7473    10.5986    10.0294 Cl    241 CCL4  -0.0812 
1306 C      -29.4866    12.3111     9.9343 C.3   241 CCL4   0.3246 
1307 CL     -30.6086    13.1659     8.9701 Cl    241 CCL4  -0.0812 
1308 CL     -27.7632    12.5087     9.1630 Cl    241 CCL4  -0.0812 
1309 CL     -29.2478    12.9930    11.5929 Cl    241 CCL4  -0.0812 
1310 CL      13.9787    11.3307     8.4612 Cl    242 CCL4  -0.0812 
1311 C       13.6474    12.0991     6.8880 C.3   242 CCL4   0.3246 
1312 CL      12.0083    11.8984     6.3558 Cl    242 CCL4  -0.0812 
1313 CL      14.6486    11.4350     5.6348 Cl    242 CCL4  -0.0812 
1314 CL      13.8726    13.8264     7.0398 Cl    242 CCL4  -0.0812 
1315 CL     -11.1590     8.8987    17.3086 Cl    243 CCL4  -0.0812 
1316 C      -12.1212     9.6897    18.5702 C.3   243 CCL4   0.3246 
1317 CL     -11.0897    10.3052    19.8724 Cl    243 CCL4  -0.0812 
1318 CL     -13.3366     8.7079    19.3078 Cl    243 CCL4  -0.0812 
1319 CL     -12.8309    11.2905    17.8130 Cl    243 CCL4  -0.0812 
1320 CL     -10.3891    14.4196    15.9887 Cl    244 CCL4  -0.0812 
1321 C      -11.2025    15.0437    14.6328 C.3   244 CCL4   0.3246 
1322 CL     -12.7829    14.2240    14.5267 Cl    244 CCL4  -0.0812 
1323 CL     -10.4740    14.7260    13.1319 Cl    244 CCL4  -0.0812 
1324 CL     -11.4215    16.7432    14.9294 Cl    244 CCL4  -0.0812 
1325 CL     -21.0354     8.5685     5.0938 Cl    245 CCL4  -0.0812 
1326 C      -22.7370     8.6266     4.8084 C.3   245 CCL4   0.3246 
1327 CL     -23.4429     7.1634     5.2673 Cl    245 CCL4  -0.0812 
1328 CL     -23.0728     9.0771     3.0685 Cl    245 CCL4  -0.0812 
1329 CL     -23.3917     9.9949     5.8253 Cl    245 CCL4  -0.0812 
1330 CL     -23.9415    13.2473    19.3415 Cl    246 CCL4  -0.0812 
1331 C      -23.2838    12.0341    18.2165 C.3   246 CCL4   0.3246 
1332 CL     -24.4262    11.6220    16.9669 Cl    246 CCL4  -0.0812 
1333 CL     -22.7895    10.6190    19.0498 Cl    246 CCL4  -0.0812 
1334 CL     -21.9441    12.7446    17.3371 Cl    246 CCL4  -0.0812 
1335 CL     -22.2035    21.0261    20.3923 Cl    247 CCL4  -0.0812 
1336 C      -22.0860    19.2655    20.2429 C.3   247 CCL4   0.3246 
1337 CL     -20.4767    18.7516    20.6642 Cl    247 CCL4  -0.0812 
1338 CL     -22.1666    18.8129    18.5107 Cl    247 CCL4  -0.0812 
1339 CL     -23.2454    18.4879    21.2911 Cl    247 CCL4  -0.0812 
1340 CL     -15.8822    15.4595    18.5671 Cl    248 CCL4  -0.0812 
1341 C      -14.2483    15.8498    19.1510 C.3   248 CCL4   0.3246 
1342 CL     -14.1320    17.6219    19.4584 Cl    248 CCL4  -0.0812 
1343 CL     -13.0257    15.3387    17.9342 Cl    248 CCL4  -0.0812 
1344 CL     -13.9606    15.1194    20.7349 Cl    248 CCL4  -0.0812 
1345 CL      14.0814    12.4374    21.6445 Cl    249 CCL4  -0.0812 
1346 C       13.9905    13.3000    20.0873 C.3   249 CCL4   0.3246 
1347 CL      14.8188    14.9409    20.0834 Cl    249 CCL4  -0.0812 
1348 CL      12.2634    13.8151    19.9130 Cl    249 CCL4  -0.0812 
1349 CL      14.5879    12.3342    18.6867 Cl    249 CCL4  -0.0812 
1350 CL     -32.4659     8.9559    20.4144 Cl    250 CCL4  -0.0812 
1351 C      -31.3821     8.3578    19.1454 C.3   250 CCL4   0.3246 
1352 CL     -32.3285     7.0262    18.4413 Cl    250 CCL4  -0.0812 
1353 CL     -30.0500     7.5058    19.9588 Cl    250 CCL4  -0.0812 
1354 CL     -30.8744     9.6091    17.9776 Cl    250 CCL4  -0.0812 
1355 CL     -16.8707    10.5499     9.9740 Cl    251 CCL4  -0.0812 
1356 C      -16.3396    11.8973    10.9542 C.3   251 CCL4   0.3246 
1357 CL     -16.5866    13.4643    10.0564 Cl    251 CCL4  -0.0812 
1358 CL     -14.5874    11.6665    11.2127 Cl    251 CCL4  -0.0812 
1359 CL     -17.2740    11.9492    12.5275 Cl    251 CCL4  -0.0812 
1360 CL     -18.7045     4.7432    12.8683 Cl    252 CCL4  -0.0812 
1361 C      -19.2546     3.3712    13.8261 C.3   252 CCL4   0.3246 
1362 CL     -20.2411     3.9230    15.1914 Cl    252 CCL4  -0.0812 
1363 CL     -17.8248     2.5714    14.4277 Cl    252 CCL4  -0.0812 
1364 CL     -20.2914     2.3024    12.7588 Cl    252 CCL4  -0.0812 
1365 CL     -13.8633     6.8331     9.0660 Cl    253 CCL4  -0.0812 
1366 C      -12.3915     7.7911     8.9616 C.3   253 CCL4   0.3246 
1367 CL     -10.9110     6.7754     9.0963 Cl    253 CCL4  -0.0812 
1368 CL     -12.3056     9.0778    10.1454 Cl    253 CCL4  -0.0812 
1369 CL     -12.2709     8.6215     7.3613 Cl    253 CCL4  -0.0812 
1370 CL     -14.8641     1.5159    12.8206 Cl    254 CCL4  -0.0812 
1371 C      -14.1410     3.0986    12.8583 C.3   254 CCL4   0.3246 
1372 CL     -13.8086     3.4651    14.6460 Cl    254 CCL4  -0.0812 
1373 CL     -15.2786     4.3638    12.3337 Cl    254 CCL4  -0.0812 
1374 CL     -12.6567     3.2933    11.9292 Cl    254 CCL4  -0.0812 
1375 CL     -13.2380    10.2994    14.1324 Cl    255 CCL4  -0.0812 
1376 C      -13.7762     8.5385    14.0476 C.3   255 CCL4   0.3246 
1377 CL     -15.2289     8.5402    12.9788 Cl    255 CCL4  -0.0812 
1378 CL     -14.0803     7.9426    15.6712 Cl    255 CCL4  -0.0812 
1379 CL     -12.4170     7.5500    13.4445 Cl    255 CCL4  -0.0812 
1380 CL     -20.3919    -3.5672     5.7605 Cl    256 CCL4  -0.0812 
1381 C      -19.5008    -2.0263     6.1038 C.3   256 CCL4   0.3246 
1382 CL     -17.9839    -2.3944     7.0704 Cl    256 CCL4  -0.0812 
1383 CL     -20.5875    -0.9355     7.0133 Cl    256 CCL4  -0.0812 
1384 CL     -19.0625    -1.2479     4.5662 Cl    256 CCL4  -0.0812 
1385 CL     -17.9052     4.1829     9.0424 Cl    257 CCL4  -0.0812 
1386 C      -17.0376     2.6982     9.0975 C.3   257 CCL4   0.3246 
1387 CL     -17.5567     1.4601     7.8849 Cl    257 CCL4  -0.0812 
1388 CL     -17.3926     1.8924    10.7817 Cl    257 CCL4  -0.0812 
1389 CL     -15.2422     2.8547     9.0547 Cl    257 CCL4  -0.0812 
1390 CL     -19.3892    -0.9035    11.0708 Cl    258 CCL4  -0.0812 
1391 C      -19.0150    -1.7218    12.5858 C.3   258 CCL4   0.3246 
1392 CL     -17.7188    -0.9047    13.4377 Cl    258 CCL4  -0.0812 
1393 CL     -18.4751    -3.4128    12.2903 Cl    258 CCL4  -0.0812 
1394 CL     -20.4993    -1.9264    13.6680 Cl    258 CCL4  -0.0812 
1395 CL     -17.5250    16.7485    14.7148 Cl    259 CCL4  -0.0812 
1396 C      -15.8852    17.1896    14.2152 C.3   259 CCL4   0.3246 
1397 CL     -14.9490    17.5527    15.5905 Cl    259 CCL4  -0.0812 
1398 CL     -15.9616    18.7144    13.3215 Cl    259 CCL4  -0.0812 
1399 CL     -15.2769    15.8507    13.2566 Cl    259 CCL4  -0.0812 
1400 CL     -15.5671     8.0041     6.0993 Cl    260 CCL4  -0.0812 
1401 C      -17.2519     8.3107     5.6557 C.3   260 CCL4   0.3246 
1402 CL     -18.2799     7.4968     6.8449 Cl    260 CCL4  -0.0812 
1403 CL     -17.6680     7.7130     4.0133 Cl    260 CCL4  -0.0812 
1404 CL     -17.7847    10.0033     5.7545 Cl    260 CCL4  -0.0812 
1405 CL     -20.1364    16.7176     8.7242 Cl    261 CCL4  -0.0812 
1406 C      -18.4520    16.9692     9.1932 C.3   261 CCL4   0.3246 
1407 CL     -18.1523    16.3488    10.8110 Cl    261 CCL4  -0.0812 
1408 CL     -18.3227    18.7932     9.2013 Cl    261 CCL4  -0.0812 
1409 CL     -17.4547    16.1572     7.8658 Cl    261 CCL4  -0.0812 
1410 CL     -15.1629    -4.0566     9.3423 Cl    262 CCL4  -0.0812 
1411 C      -15.0790    -2.5677    10.2802 C.3   262 CCL4   0.3246 
1412 CL     -15.0769    -2.7673    11.9813 Cl    262 CCL4  -0.0812 
1413 CL     -16.3642    -1.4550     9.8073 Cl    262 CCL4  -0.0812 
1414 CL     -13.6593    -1.5046     9.7639 Cl    262 CCL4  -0.0812 
1415 CL     -15.4730     4.2778    18.2666 Cl    263 CCL4  -0.0812 
1416 C      -16.7313     5.3685    17.6199 C.3   263 CCL4   0.3246 
1417 CL     -18.4376     4.6646    18.1481 Cl    263 CCL4  -0.0812 
1418 CL     -16.7109     5.4404    15.8484 Cl    263 CCL4  -0.0812 
1419 CL     -16.8026     6.9740    18.4043 Cl    263 CCL4  -0.0812 
1420 CL     -19.4590     8.4912    16.6845 Cl    264 CCL4  -0.0812 
1421 C      -20.1369     8.8408    15.1212 C.3   264 CCL4   0.3246 
1422 CL     -20.9553     7.3434    14.6897 Cl    264 CCL4  -0.0812 
1423 CL     -19.0026     9.2522    13.7880 Cl    264 CCL4  -0.0812 
1424 CL     -21.3770    10.1240    15.1489 Cl    264 CCL4  -0.0812 
1425 CL     -17.1075     1.3206    19.1590 Cl    265 CCL4  -0.0812 
1426 C      -15.6286     0.6370    18.4695 C.3   265 CCL4   0.3246 
1427 CL     -15.4140     1.3997    16.8305 Cl    265 CCL4  -0.0812 
1428 CL     -15.7331    -1.1146    18.3583 Cl    265 CCL4  -0.0812 
1429 CL     -14.2168     1.0246    19.4544 Cl    265 CCL4  -0.0812 
1430 CL     -18.8889    21.5621    17.9660 Cl    266 CCL4  -0.0812 
1431 C      -17.6187    20.3169    17.8153 C.3   266 CCL4   0.3246 
1432 CL     -16.6369    20.3118    19.3134 Cl    266 CCL4  -0.0812 
1433 CL     -16.7644    20.7024    16.2379 Cl    266 CCL4  -0.0812 
1434 CL     -18.3350    18.6810    17.7248 Cl    266 CCL4  -0.0812 
1435 CL     -20.4805    10.1774     8.2326 Cl    267 CCL4  -0.0812 
1436 C      -20.9058    11.9753     7.8613 C.3   267 CCL4   0.3246 
1437 CL     -19.9960    13.0919     8.8723 Cl    267 CCL4  -0.0812 
1438 CL     -22.6402    12.1961     8.2800 Cl    267 CCL4  -0.0812 
1439 CL     -20.5095    12.3302     6.1962 Cl    267 CCL4  -0.0812 
1440 CL     -15.8586    12.9862    16.1808 Cl    268 CCL4  -0.0812 
1441 C      -16.8762    11.7241    16.9724 C.3   268 CCL4   0.3246 
1442 CL     -16.5263    11.6292    18.7301 Cl    268 CCL4  -0.0812 
1443 CL     -16.5606    10.1238    16.2888 Cl    268 CCL4  -0.0812 
1444 CL     -18.6401    12.0263    16.6354 Cl    268 CCL4  -0.0812 
1445 CL     -21.5887    14.9346    11.5630 Cl    269 CCL4  -0.0812 
1446 C      -21.1563    13.6689    12.7057 C.3   269 CCL4   0.3246 
1447 CL     -22.4581    13.6970    13.8480 Cl    269 CCL4  -0.0812 
1448 CL     -19.5848    14.0314    13.6022 Cl    269 CCL4  -0.0812 
1449 CL     -20.8971    12.1521    11.9306 Cl    269 CCL4  -0.0812 
1450 CL     -21.2873    18.3553    12.7521 Cl    270 CCL4  -0.0812 
1451 C      -21.6621    18.5622    14.4345 C.3   270 CCL4   0.3246 
1452 CL     -20.7186    19.9861    14.9485 Cl    270 CCL4  -0.0812 
1453 CL     -21.1550    17.1280    15.3099 Cl    270 CCL4  -0.0812 
1454 CL     -23.3424    18.8661    14.8122 Cl    270 CCL4  -0.0812 
1455 CL     -24.1602    23.1158   -10.5786 Cl    271 CCL4  -0.0812 
1456 C      -24.7580    24.1337   -11.9738 C.3   271 CCL4   0.3246 
1457 CL     -25.9966    23.3549   -13.0564 Cl    271 CCL4  -0.0812 
1458 CL     -23.3805    24.6945   -12.9729 Cl    271 CCL4  -0.0812 
1459 CL     -25.4889    25.6724   -11.2333 Cl    271 CCL4  -0.0812 
1460 CL     -26.1200    21.6845     3.2129 Cl    272 CCL4  -0.0812 
1461 C      -24.9375    22.0927     4.5053 C.3   272 CCL4   0.3246 
1462 CL     -24.4694    20.5419     5.1544 Cl    272 CCL4  -0.0812 
1463 CL     -25.8935    22.9694     5.7265 Cl    272 CCL4  -0.0812 
1464 CL     -23.5835    22.9904     3.9416 Cl    272 CCL4  -0.0812 
1465 CL     -22.7871    26.7440     3.6817 Cl    273 CCL4  -0.0812 
1466 C      -24.4590    27.3413     3.5548 C.3   273 CCL4   0.3246 
1467 CL     -24.8148    27.5933     1.7612 Cl    273 CCL4  -0.0812 
1468 CL     -24.7885    28.8649     4.3945 Cl    273 CCL4  -0.0812 
1469 CL     -25.6928    26.1183     3.9797 Cl    273 CCL4  -0.0812 
1470 CL     -24.4461    31.6743   -11.4991 Cl    274 CCL4  -0.0812 
1471 C      -24.9546    29.9470   -11.2829 C.3   274 CCL4   0.3246 
1472 CL     -23.5276    29.0036   -10.8187 Cl    274 CCL4  -0.0812 
1473 CL     -25.6157    29.2643   -12.7353 Cl    274 CCL4  -0.0812 
1474 CL     -26.0503    29.8316    -9.8320 Cl    274 CCL4  -0.0812 
1475 CL     -29.5517    23.7966   -15.3956 Cl    275 CCL4  -0.0812 
1476 C      -31.3331    23.2707   -15.2464 C.3   275 CCL4   0.3246 
1477 CL     -31.3485    21.5776   -15.0401 Cl    275 CCL4  -0.0812 
1478 CL     -32.3024    23.7024   -16.7341 Cl    275 CCL4  -0.0812 
1479 CL     -31.9945    24.2006   -13.8235 Cl    275 CCL4  -0.0812 
1480 CL     -25.3624    23.7077    -7.4919 Cl    276 CCL4  -0.0812 
1481 C      -25.8633    22.0718    -7.1365 C.3   276 CCL4   0.3246 
1482 CL     -24.6308    20.9413    -7.6796 Cl    276 CCL4  -0.0812 
1483 CL     -27.3007    21.6626    -8.0907 Cl    276 CCL4  -0.0812 
1484 CL     -26.1928    21.9089    -5.4500 Cl    276 CCL4  -0.0812 
1485 CL     -29.0396    24.4310   -11.5537 Cl    277 CCL4  -0.0812 
1486 C      -29.7835    24.9216   -10.0025 C.3   277 CCL4   0.3246 
1487 CL     -28.5596    25.4103    -8.9297 Cl    277 CCL4  -0.0812 
1488 CL     -30.6604    23.5081    -9.3865 Cl    277 CCL4  -0.0812 
1489 CL     -30.9740    26.2643   -10.3073 Cl    277 CCL4  -0.0812 
1490 CL     -10.4268    22.3376    24.8345 Cl    278 CCL4  -0.0812 
1491 C      -10.5954    21.6100    23.2205 C.3   278 CCL4   0.3246 
1492 CL     -11.9581    20.4456    23.1242 Cl    278 CCL4  -0.0812 
1493 CL      -9.0020    20.9776    22.7926 Cl    278 CCL4  -0.0812 
1494 CL     -10.9406    22.9968    22.1156 Cl    278 CCL4  -0.0812 
1495 CL     -22.8151    29.1474    22.7156 Cl    279 CCL4  -0.0812 
1496 C      -23.0626    27.5767    23.4813 C.3   279 CCL4   0.3246 
1497 CL     -24.4414    27.6129    24.5648 Cl    279 CCL4  -0.0812 
1498 CL     -21.6056    27.0907    24.4265 Cl    279 CCL4  -0.0812 
1499 CL     -23.2853    26.2966    22.2023 Cl    279 CCL4  -0.0812 
1500 CL     -28.1667    26.6928   -14.3160 Cl    280 CCL4  -0.0812 
1501 C      -29.1809    27.9321   -13.5921 C.3   280 CCL4   0.3246 
1502 CL     -28.8515    29.4572   -14.4357 Cl    280 CCL4  -0.0812 
1503 CL     -28.5600    28.1761   -11.8740 Cl    280 CCL4  -0.0812 
1504 CL     -30.8563    27.4056   -13.6194 Cl    280 CCL4  -0.0812 
1505 CL      -8.9390    32.1209   -10.4022 Cl    281 CCL4  -0.0812 
1506 C       -9.2682    30.4933   -11.0589 C.3   281 CCL4   0.3246 
1507 CL     -10.5192    29.6544   -10.1725 Cl    281 CCL4  -0.0812 
1508 CL      -7.8759    29.4904   -10.8251 Cl    281 CCL4  -0.0812 
1509 CL      -9.6811    30.7421   -12.8096 Cl    281 CCL4  -0.0812 
1510 CL      -8.6541    24.1006   -10.6034 Cl    282 CCL4  -0.0812 
1511 C      -10.1196    24.9764   -11.1281 C.3   282 CCL4   0.3246 
1512 CL      -9.5546    26.2202   -12.2809 Cl    282 CCL4  -0.0812 
1513 CL     -11.0118    25.7252    -9.8294 Cl    282 CCL4  -0.0812 
1514 CL     -11.2210    23.8901   -12.1134 Cl    282 CCL4  -0.0812 
1515 CL     -10.7289    31.3171    -5.6065 Cl    283 CCL4  -0.0812 
1516 C      -11.4855    29.7492    -5.1265 C.3   283 CCL4   0.3246 
1517 CL     -11.5936    28.6956    -6.5819 Cl    283 CCL4  -0.0812 
1518 CL     -13.1655    30.0916    -4.4922 Cl    283 CCL4  -0.0812 
1519 CL     -10.5392    28.8447    -3.8287 Cl    283 CCL4  -0.0812 
1520 CL     -11.1268    25.7457    24.2866 Cl    284 CCL4  -0.0812 
1521 C      -10.5828    27.2549    23.5587 C.3   284 CCL4   0.3246 
1522 CL      -9.3118    28.0355    24.6023 Cl    284 CCL4  -0.0812 
1523 CL     -11.8949    28.4974    23.4636 Cl    284 CCL4  -0.0812 
1524 CL      -9.9146    27.1439    21.9913 Cl    284 CCL4  -0.0812 
1525 CL     -29.5545    26.1643    -2.9316 Cl    285 CCL4  -0.0812 
1526 C      -29.0823    24.6983    -3.9214 C.3   285 CCL4   0.3246 
1527 CL     -30.6263    24.1817    -4.6742 Cl    285 CCL4  -0.0812 
1528 CL     -28.3048    23.3781    -2.9424 Cl    285 CCL4  -0.0812 
1529 CL     -28.0029    25.2833    -5.1786 Cl    285 CCL4  -0.0812 
1530 CL     -23.5296    22.8075     0.4060 Cl    286 CCL4  -0.0812 
1531 C      -22.2634    21.5290     0.7380 C.3   286 CCL4   0.3246 
1532 CL     -21.0562    22.2347     1.8204 Cl    286 CCL4  -0.0812 
1533 CL     -21.5414    21.1136    -0.8389 Cl    286 CCL4  -0.0812 
1534 CL     -23.0315    20.1165     1.5359 Cl    286 CCL4  -0.0812 
1535 CL     -22.5924    31.4644    -0.8454 Cl    287 CCL4  -0.0812 
1536 C      -21.8484    30.7658     0.5083 C.3   287 CCL4   0.3246 
1537 CL     -22.8717    30.7990     1.9580 Cl    287 CCL4  -0.0812 
1538 CL     -20.4735    31.7858     1.0147 Cl    287 CCL4  -0.0812 
1539 CL     -21.2991    29.1364     0.1770 Cl    287 CCL4  -0.0812 
1540 CL      -8.4134    25.6148    -4.5974 Cl    288 CCL4  -0.0812 
1541 C       -9.3761    24.2362    -5.3174 C.3   288 CCL4   0.3246 
1542 CL      -8.5331    23.5926    -6.7713 Cl    288 CCL4  -0.0812 
1543 CL     -10.9440    24.8678    -5.7963 Cl    288 CCL4  -0.0812 
1544 CL      -9.6973    22.8529    -4.1557 Cl    288 CCL4  -0.0812 
1545 CL      13.8837    23.3392    -0.6485 Cl    289 CCL4  -0.0812 
1546 C       14.6507    21.7596    -1.0724 C.3   289 CCL4   0.3246 
1547 CL      13.2430    20.7132    -1.4192 Cl    289 CCL4  -0.0812 
1548 CL      15.4811    21.2754     0.4084 Cl    289 CCL4  -0.0812 
1549 CL      15.8106    21.6936    -2.3933 Cl    289 CCL4  -0.0812 
1550 CL     -19.8639    25.1997    -8.3907 Cl    290 CCL4  -0.0812 
1551 C      -21.4023    25.6241    -7.8021 C.3   290 CCL4   0.3246 
1552 CL     -22.4841    25.9429    -9.2447 Cl    290 CCL4  -0.0812 
1553 CL     -21.3126    27.0740    -6.8645 Cl    290 CCL4  -0.0812 
1554 CL     -22.1371    24.3411    -6.8748 Cl    290 CCL4  -0.0812 
1555 CL     -23.0471    26.5492    -1.9804 Cl    291 CCL4  -0.0812 
1556 C      -24.0774    25.5677    -2.9425 C.3   291 CCL4   0.3246 
1557 CL     -24.5561    26.4389    -4.4146 Cl    291 CCL4  -0.0812 
1558 CL     -25.4879    25.2110    -1.9726 Cl    291 CCL4  -0.0812 
1559 CL     -23.2781    24.0847    -3.3563 Cl    291 CCL4  -0.0812 
1560 CL     -28.7790    29.4715    -1.2069 Cl    292 CCL4  -0.0812 
1561 C      -27.2940    29.7589    -2.1501 C.3   292 CCL4   0.3246 
1562 CL     -27.6650    29.4247    -3.8355 Cl    292 CCL4  -0.0812 
1563 CL     -26.0915    28.6920    -1.5004 Cl    292 CCL4  -0.0812 
1564 CL     -26.8679    31.5261    -2.0442 Cl    292 CCL4  -0.0812 
1565 CL     -30.4771    29.1941    -7.9320 Cl    293 CCL4  -0.0812 
1566 C      -31.5723    28.2318    -6.9970 C.3   293 CCL4   0.3246 
1567 CL     -33.2587    28.5244    -7.4625 Cl    293 CCL4  -0.0812 
1568 CL     -31.4956    28.7927    -5.3623 Cl    293 CCL4  -0.0812 
1569 CL     -31.1546    26.5190    -7.1073 Cl    293 CCL4  -0.0812 
1570 CL     -13.9627    23.1937    -9.3610 Cl    294 CCL4  -0.0812 
1571 C      -12.9604    21.6877    -9.1620 C.3   294 CCL4   0.3246 
1572 CL     -13.6178    20.9398    -7.6733 Cl    294 CCL4  -0.0812 
1573 CL     -11.2394    22.1404    -8.7006 Cl    294 CCL4  -0.0812 
1574 CL     -13.0297    20.7059   -10.6680 Cl    294 CCL4  -0.0812 
1575 CL     -27.2838    23.8126     0.4062 Cl    295 CCL4  -0.0812 
1576 C      -28.5658    24.9012     1.0350 C.3   295 CCL4   0.3246 
1577 CL     -28.7928    24.3672     2.7452 Cl    295 CCL4  -0.0812 
1578 CL     -30.0135    24.7767     0.0659 Cl    295 CCL4  -0.0812 
1579 CL     -28.0410    26.6043     1.0092 Cl    295 CCL4  -0.0812 
1580 CL      12.5215    25.2502     3.8743 Cl    296 CCL4  -0.0812 
1581 C       14.1674    25.7024     3.9999 C.3   296 CCL4   0.3246 
1582 CL      14.4714    27.4537     4.2222 Cl    296 CCL4  -0.0812 
1583 CL      15.0124    25.1676     2.5239 Cl    296 CCL4  -0.0812 
1584 CL      14.9227    24.7932     5.2473 Cl    296 CCL4  -0.0812 
1585 CL     -18.7045    29.7432   -12.1317 Cl    297 CCL4  -0.0812 
1586 C      -19.2546    28.3712   -11.1739 C.3   297 CCL4   0.3246 
1587 CL     -20.2411    28.9230    -9.8086 Cl    297 CCL4  -0.0812 
1588 CL     -17.8248    27.5714   -10.5723 Cl    297 CCL4  -0.0812 
1589 CL     -20.2914    27.3024   -12.2412 Cl    297 CCL4  -0.0812 
1590 CL     -13.6118    30.8105     3.1895 Cl    298 CCL4  -0.0812 
1591 C      -12.8136    29.5111     4.1055 C.3   298 CCL4   0.3246 
1592 CL     -14.1894    28.6752     4.8286 Cl    298 CCL4  -0.0812 
1593 CL     -11.7941    30.2928     5.2543 Cl    298 CCL4  -0.0812 
1594 CL     -11.9883    28.4461     3.0583 Cl    298 CCL4  -0.0812 
1595 CL     -14.8641    26.5159   -12.1794 Cl    299 CCL4  -0.0812 
1596 C      -14.1410    28.0986   -12.1417 C.3   299 CCL4   0.3246 
1597 CL     -13.8086    28.4651   -10.3540 Cl    299 CCL4  -0.0812 
1598 CL     -15.2786    29.3638   -12.6663 Cl    299 CCL4  -0.0812 
1599 CL     -12.6567    28.2933   -13.0708 Cl    299 CCL4  -0.0812 
1600 CL     -17.9052    29.1829   -15.9576 Cl    300 CCL4  -0.0812 
1601 C      -17.0376    27.6982   -15.9025 C.3   300 CCL4   0.3246 
1602 CL     -17.5567    26.4601   -17.1151 Cl    300 CCL4  -0.0812 
1603 CL     -17.3926    26.8924   -14.2183 Cl    300 CCL4  -0.0812 
1604 CL     -15.2422    27.8547   -15.9453 Cl    300 CCL4  -0.0812 
1605 CL     -19.3892    24.0965   -13.9292 Cl    301 CCL4  -0.0812 
1606 C      -19.0150    23.2782   -12.4142 C.3   301 CCL4   0.3246 
1607 CL     -17.7188    24.0953   -11.5623 Cl    301 CCL4  -0.0812 
1608 CL     -18.4751    21.5872   -12.7097 Cl    301 CCL4  -0.0812 
1609 CL     -20.4993    23.0736   -11.3320 Cl    301 CCL4  -0.0812 
1610 CL     -15.1629    20.9434   -15.6577 Cl    302 CCL4  -0.0812 
1611 C      -15.0790    22.4323   -14.7198 C.3   302 CCL4   0.3246 
1612 CL     -15.0769    22.2327   -13.0187 Cl    302 CCL4  -0.0812 
1613 CL     -16.3642    23.5450   -15.1927 Cl    302 CCL4  -0.0812 
1614 CL     -13.6593    23.4954   -15.2361 Cl    302 CCL4  -0.0812 
1615 CL     -15.4730    29.2778    -6.7334 Cl    303 CCL4  -0.0812 
1616 C      -16.7313    30.3685    -7.3801 C.3   303 CCL4   0.3246 
1617 CL     -18.4376    29.6646    -6.8519 Cl    303 CCL4  -0.0812 
1618 CL     -16.7109    30.4404    -9.1516 Cl    303 CCL4  -0.0812 
1619 CL     -16.8026    31.9740    -6.5957 Cl    303 CCL4  -0.0812 
1620 CL     -17.1075    26.3206    -5.8410 Cl    304 CCL4  -0.0812 
1621 C      -15.6286    25.6370    -6.5305 C.3   304 CCL4   0.3246 
1622 CL     -15.4140    26.3997    -8.1695 Cl    304 CCL4  -0.0812 
1623 CL     -15.7331    23.8854    -6.6417 Cl    304 CCL4  -0.0812 
1624 CL     -14.2168    26.0246    -5.5456 Cl    304 CCL4  -0.0812 
1625 CL     -14.6126    20.6672    -2.4288 Cl    305 CCL4  -0.0812 
1626 C      -13.1294    21.4760    -3.0242 C.3   305 CCL4   0.3246 
1627 CL     -13.6580    22.6928    -4.2229 Cl    305 CCL4  -0.0812 
1628 CL     -12.0269    20.2788    -3.6949 Cl    305 CCL4  -0.0812 
1629 CL     -12.3070    22.1445    -1.6261 Cl    305 CCL4  -0.0812 
1630 CL     -32.1274    27.8756    -1.6651 Cl    306 CCL4  -0.0812 
1631 C      -32.5555    28.8771    -0.2910 C.3   306 CCL4   0.3246 
1632 CL     -32.9275    30.5550    -0.7230 Cl    306 CCL4  -0.0812 
1633 CL     -34.1211    28.3067     0.4136 Cl    306 CCL4  -0.0812 
1634 CL     -31.3128    28.7653     0.9877 Cl    306 CCL4  -0.0812 
1635 CL     -15.2778    28.1600     1.3934 Cl    307 CCL4  -0.0812 
1636 C      -16.3077    28.9354     0.1384 C.3   307 CCL4   0.3246 
1637 CL     -17.3580    27.7048    -0.5614 Cl    307 CCL4  -0.0812 
1638 CL     -15.3531    29.7381    -1.1104 Cl    307 CCL4  -0.0812 
1639 CL     -17.3384    30.1321     1.0922 Cl    307 CCL4  -0.0812 
1640 CL     -19.8785    24.3329    -1.8709 Cl    308 CCL4  -0.0812 
1641 C      -18.7641    23.6993    -3.1733 C.3   308 CCL4   0.3246 
1642 CL     -18.5576    21.9668    -2.9693 Cl    308 CCL4  -0.0812 
1643 CL     -17.3188    24.6020    -2.8108 Cl    308 CCL4  -0.0812 
1644 CL     -19.4201    24.1990    -4.7359 Cl    308 CCL4  -0.0812 
1645 CL     -12.5808    27.6742    -0.5058 Cl    309 CCL4  -0.0812 
1646 C      -12.5863    26.0271    -0.9289 C.3   309 CCL4   0.3246 
1647 CL     -12.1222    25.1049     0.5695 Cl    309 CCL4  -0.0812 
1648 CL     -11.4323    25.6540    -2.1370 Cl    309 CCL4  -0.0812 
1649 CL     -14.1868    25.5324    -1.3422 Cl    309 CCL4  -0.0812 
1650 CL     -17.3224    24.4185     1.5539 Cl    310 CCL4  -0.0812 
1651 C      -16.6539    22.7609     1.2986 C.3   310 CCL4   0.3246 
1652 CL     -15.0813    22.8516     0.5507 Cl    310 CCL4  -0.0812 
1653 CL     -17.7119    21.8115     0.2273 Cl    310 CCL4  -0.0812 
1654 CL     -16.3857    22.0655     2.9571 Cl    310 CCL4  -0.0812 
1655 CL     -24.1602    23.1158    14.4214 Cl    311 CCL4  -0.0812 
1656 C      -24.7580    24.1337    13.0262 C.3   311 CCL4   0.3246 
1657 CL     -25.9966    23.3549    11.9436 Cl    311 CCL4  -0.0812 
1658 CL     -23.3805    24.6945    12.0271 Cl    311 CCL4  -0.0812 
1659 CL     -25.4889    25.6724    13.7667 Cl    311 CCL4  -0.0812 
1660 CL     -24.4461    31.6743    13.5009 Cl    312 CCL4  -0.0812 
1661 C      -24.9546    29.9470    13.7171 C.3   312 CCL4   0.3246 
1662 CL     -23.5276    29.0036    14.1813 Cl    312 CCL4  -0.0812 
1663 CL     -25.6157    29.2643    12.2647 Cl    312 CCL4  -0.0812 
1664 CL     -26.0503    29.8316    15.1680 Cl    312 CCL4  -0.0812 
1665 CL     -29.5517    23.7966     9.6044 Cl    313 CCL4  -0.0812 
1666 C      -31.3331    23.2707     9.7536 C.3   313 CCL4   0.3246 
1667 CL     -31.3485    21.5776     9.9599 Cl    313 CCL4  -0.0812 
1668 CL     -32.3024    23.7024     8.2659 Cl    313 CCL4  -0.0812 
1669 CL     -31.9945    24.2006    11.1765 Cl    313 CCL4  -0.0812 
1670 CL     -25.3624    23.7077    17.5081 Cl    314 CCL4  -0.0812 
1671 C      -25.8633    22.0718    17.8635 C.3   314 CCL4   0.3246 
1672 CL     -24.6308    20.9413    17.3204 Cl    314 CCL4  -0.0812 
1673 CL     -27.3007    21.6626    16.9093 Cl    314 CCL4  -0.0812 
1674 CL     -26.1928    21.9089    19.5500 Cl    314 CCL4  -0.0812 
1675 CL     -29.0396    24.4310    13.4463 Cl    315 CCL4  -0.0812 
1676 C      -29.7835    24.9216    14.9975 C.3   315 CCL4   0.3246 
1677 CL     -28.5596    25.4103    16.0703 Cl    315 CCL4  -0.0812 
1678 CL     -30.6604    23.5081    15.6135 Cl    315 CCL4  -0.0812 
1679 CL     -30.9740    26.2643    14.6927 Cl    315 CCL4  -0.0812 
1680 CL     -10.4268    22.3376     9.8345 Cl    316 CCL4  -0.0812 
1681 C      -10.5954    21.6100     8.2205 C.3   316 CCL4   0.3246 
1682 CL     -11.9581    20.4456     8.1242 Cl    316 CCL4  -0.0812 
1683 CL      -9.0020    20.9776     7.7926 Cl    316 CCL4  -0.0812 
1684 CL     -10.9406    22.9968     7.1156 Cl    316 CCL4  -0.0812 
1685 CL     -19.9892    29.8723     3.9600 Cl    317 CCL4  -0.0812 
1686 C      -18.9885    28.5462     4.7137 C.3   317 CCL4   0.3246 
1687 CL     -18.5713    27.4675     3.3700 Cl    317 CCL4  -0.0812 
1688 CL     -19.9247    27.7495     5.9512 Cl    317 CCL4  -0.0812 
1689 CL     -17.5609    29.2752     5.4571 Cl    317 CCL4  -0.0812 
1690 CL     -22.8151    29.1474     7.7156 Cl    318 CCL4  -0.0812 
1691 C      -23.0626    27.5767     8.4813 C.3   318 CCL4   0.3246 
1692 CL     -24.4414    27.6129     9.5648 Cl    318 CCL4  -0.0812 
1693 CL     -21.6056    27.0907     9.4265 Cl    318 CCL4  -0.0812 
1694 CL     -23.2853    26.2966     7.2023 Cl    318 CCL4  -0.0812 
1695 CL     -29.6164    27.3726     4.5344 Cl    319 CCL4  -0.0812 
1696 C      -29.1448    26.7793     6.1448 C.3   319 CCL4   0.3246 
1697 CL     -30.3249    27.3619     7.3039 Cl    319 CCL4  -0.0812 
1698 CL     -27.6078    27.5226     6.5971 Cl    319 CCL4  -0.0812 
1699 CL     -28.9398    25.0271     6.0704 Cl    319 CCL4  -0.0812 
1700 CL     -28.1667    26.6928    10.6840 Cl    320 CCL4  -0.0812 
1701 C      -29.1809    27.9321    11.4079 C.3   320 CCL4   0.3246 
1702 CL     -28.8515    29.4572    10.5643 Cl    320 CCL4  -0.0812 
1703 CL     -28.5600    28.1761    13.1260 Cl    320 CCL4  -0.0812 
1704 CL     -30.8563    27.4056    11.3806 Cl    320 CCL4  -0.0812 
1705 CL      -8.9390    32.1209    14.5978 Cl    321 CCL4  -0.0812 
1706 C       -9.2682    30.4933    13.9411 C.3   321 CCL4   0.3246 
1707 CL     -10.5192    29.6544    14.8275 Cl    321 CCL4  -0.0812 
1708 CL      -7.8759    29.4904    14.1749 Cl    321 CCL4  -0.0812 
1709 CL      -9.6811    30.7421    12.1904 Cl    321 CCL4  -0.0812 
1710 CL      -8.6541    24.1006    14.3966 Cl    322 CCL4  -0.0812 
1711 C      -10.1196    24.9764    13.8719 C.3   322 CCL4   0.3246 
1712 CL      -9.5546    26.2202    12.7191 Cl    322 CCL4  -0.0812 
1713 CL     -11.0118    25.7252    15.1706 Cl    322 CCL4  -0.0812 
1714 CL     -11.2210    23.8901    12.8866 Cl    322 CCL4  -0.0812 
1715 CL     -11.1268    25.7457     9.2866 Cl    323 CCL4  -0.0812 
1716 C      -10.5828    27.2549     8.5587 C.3   323 CCL4   0.3246 
1717 CL      -9.3118    28.0355     9.6023 Cl    323 CCL4  -0.0812 
1718 CL     -11.8949    28.4974     8.4636 Cl    323 CCL4  -0.0812 
1719 CL      -9.9146    27.1439     6.9913 Cl    323 CCL4  -0.0812 
1720 CL     -29.5545    26.1643    22.0684 Cl    324 CCL4  -0.0812 
1721 C      -29.0823    24.6983    21.0786 C.3   324 CCL4   0.3246 
1722 CL     -30.6263    24.1817    20.3258 Cl    324 CCL4  -0.0812 
1723 CL     -28.3048    23.3781    22.0576 Cl    324 CCL4  -0.0812 
1724 CL     -28.0029    25.2833    19.8214 Cl    324 CCL4  -0.0812 
1725 CL     -19.8639    25.1997    16.6093 Cl    325 CCL4  -0.0812 
1726 C      -21.4023    25.6241    17.1979 C.3   325 CCL4   0.3246 
1727 CL     -22.4841    25.9429    15.7553 Cl    325 CCL4  -0.0812 
1728 CL     -21.3126    27.0740    18.1355 Cl    325 CCL4  -0.0812 
1729 CL     -22.1371    24.3411    18.1252 Cl    325 CCL4  -0.0812 
1730 CL     -30.4771    29.1941    17.0680 Cl    326 CCL4  -0.0812 
1731 C      -31.5723    28.2318    18.0030 C.3   326 CCL4   0.3246 
1732 CL     -33.2587    28.5244    17.5375 Cl    326 CCL4  -0.0812 
1733 CL     -31.4956    28.7927    19.6377 Cl    326 CCL4  -0.0812 
1734 CL     -31.1546    26.5190    17.8927 Cl    326 CCL4  -0.0812 
1735 CL     -13.9627    23.1937    15.6390 Cl    327 CCL4  -0.0812 
1736 C      -12.9604    21.6877    15.8380 C.3   327 CCL4   0.3246 
1737 CL     -13.6178    20.9398    17.3267 Cl    327 CCL4  -0.0812 
1738 CL     -11.2394    22.1404    16.2994 Cl    327 CCL4  -0.0812 
1739 CL     -13.0297    20.7059    14.3320 Cl    327 CCL4  -0.0812 
1740 CL     -18.7045    29.7432    12.8683 Cl    328 CCL4  -0.0812 
1741 C      -19.2546    28.3712    13.8261 C.3   328 CCL4   0.3246 
1742 CL     -20.2411    28.9230    15.1914 Cl    328 CCL4  -0.0812 
1743 CL     -17.8248    27.5714    14.4277 Cl    328 CCL4  -0.0812 
1744 CL     -20.2914    27.3024    12.7588 Cl    328 CCL4  -0.0812 
1745 CL     -14.8641    26.5159    12.8206 Cl    329 CCL4  -0.0812 
1746 C      -14.1410    28.0986    12.8583 C.3   329 CCL4   0.3246 
1747 CL     -13.8086    28.4651    14.6460 Cl    329 CCL4  -0.0812 
1748 CL     -15.2786    29.3638    12.3337 Cl    329 CCL4  -0.0812 
1749 CL     -12.6567    28.2933    11.9292 Cl    329 CCL4  -0.0812 
1750 CL     -20.3919    21.4328     5.7605 Cl    330 CCL4  -0.0812 
1751 C      -19.5008    22.9737     6.1038 C.3   330 CCL4   0.3246 
1752 CL     -17.9839    22.6056     7.0704 Cl    330 CCL4  -0.0812 
1753 CL     -20.5875    24.0645     7.0133 Cl    330 CCL4  -0.0812 
1754 CL     -19.0625    23.7521     4.5662 Cl    330 CCL4  -0.0812 
1755 CL     -17.9052    29.1829     9.0424 Cl    331 CCL4  -0.0812 
1756 C      -17.0376    27.6982     9.0975 C.3   331 CCL4   0.3246 
1757 CL     -17.5567    26.4601     7.8849 Cl    331 CCL4  -0.0812 
1758 CL     -17.3926    26.8924    10.7817 Cl    331 CCL4  -0.0812 
1759 CL     -15.2422    27.8547     9.0547 Cl    331 CCL4  -0.0812 
1760 CL     -19.3892    24.0965    11.0708 Cl    332 CCL4  -0.0812 
1761 C      -19.0150    23.2782    12.5858 C.3   332 CCL4   0.3246 
1762 CL     -17.7188    24.0953    13.4377 Cl    332 CCL4  -0.0812 
1763 CL     -18.4751    21.5872    12.2903 Cl    332 CCL4  -0.0812 
1764 CL     -20.4993    23.0736    13.6680 Cl    332 CCL4  -0.0812 
1765 CL     -15.1629    20.9434     9.3423 Cl    333 CCL4  -0.0812 
1766 C      -15.0790    22.4323    10.2802 C.3   333 CCL4   0.3246 
1767 CL     -15.0769    22.2327    11.9813 Cl    333 CCL4  -0.0812 
1768 CL     -16.3642    23.5450     9.8073 Cl    333 CCL4  -0.0812 
1769 CL     -13.6593    23.4954     9.7639 Cl    333 CCL4  -0.0812 
1770 CL     -15.4730    29.2778    18.2666 Cl    334 CCL4  -0.0812 
1771 C      -16.7313    30.3685    17.6199 C.3   334 CCL4   0.3246 
1772 CL     -18.4376    29.6646    18.1481 Cl    334 CCL4  -0.0812 
1773 CL     -16.7109    30.4404    15.8484 Cl    334 CCL4  -0.0812 
1774 CL     -16.8026    31.9740    18.4043 Cl    334 CCL4  -0.0812 
1775 CL     -17.1075    26.3206    19.1590 Cl    335 CCL4  -0.0812 
1776 C      -15.6286    25.6370    18.4695 C.3   335 CCL4   0.3246 
1777 CL     -15.4140    26.3997    16.8305 Cl    335 CCL4  -0.0812 
1778 CL     -15.7331    23.8854    18.3583 Cl    335 CCL4  -0.0812 
1779 CL     -14.2168    26.0246    19.4544 Cl    335 CCL4  -0.0812 
1780 CL      -8.7018   -15.7604   -13.2255 Cl    336 CCL4  -0.0812 
1781 C       -8.9361   -14.1189   -12.5613 C.3   336 CCL4   0.3246 
1782 CL     -10.4309   -13.4920   -13.2695 Cl    336 CCL4  -0.0812 
1783 CL      -7.5132   -13.0624   -12.7838 Cl    336 CCL4  -0.0812 
1784 CL      -9.1478   -14.3297   -10.7979 Cl    336 CCL4  -0.0812 
1785 CL       2.9550    33.7353   -16.3663 Cl    337 CCL4  -0.0812 
1786 C        3.4564    33.7351   -14.7458 C.3   337 CCL4   0.3246 
1787 CL       3.1199    32.2395   -13.9611 Cl    337 CCL4  -0.0812 
1788 CL       2.8982    35.0905   -13.8597 Cl    337 CCL4  -0.0812 
1789 CL       5.2484    33.8616   -14.7681 Cl    337 CCL4  -0.0812 
1790 CL      -4.8919    36.0418   -11.3318 Cl    338 CCL4  -0.0812 
1791 C       -4.6056    34.2869   -11.2046 C.3   338 CCL4   0.3246 
1792 CL      -4.8504    33.7717    -9.5138 Cl    338 CCL4  -0.0812 
1793 CL      -3.0665    33.6875   -11.7681 Cl    338 CCL4  -0.0812 
1794 CL      -5.8597    33.4737   -12.1725 Cl    338 CCL4  -0.0812 
1795 CL      -3.4425    -6.5260   -11.1494 Cl    339 CCL4  -0.0812 
1796 C       -2.9083    -4.9646   -11.8348 C.3   339 CCL4   0.3246 
1797 CL      -3.8365    -3.5496   -11.3011 Cl    339 CCL4  -0.0812 
1798 CL      -2.7617    -4.9544   -13.5823 Cl    339 CCL4  -0.0812 
1799 CL      -1.2748    -4.6989   -11.1777 Cl    339 CCL4  -0.0812 
1800 CL       4.0843    -3.7937   -15.4070 Cl    340 CCL4  -0.0812 
1801 C        2.2855    -4.2092   -15.4113 C.3   340 CCL4   0.3246 
1802 CL       2.0751    -5.9086   -16.0191 Cl    340 CCL4  -0.0812 
1803 CL       1.4424    -3.0876   -16.4624 Cl    340 CCL4  -0.0812 
1804 CL       1.6145    -3.9262   -13.7467 Cl    340 CCL4  -0.0812 
1805 CL      -3.9989    -6.1350    23.5544 Cl    341 CCL4  -0.0812 
1806 C       -2.4773    -5.8459    22.6965 C.3   341 CCL4   0.3246 
1807 CL      -2.1411    -4.0740    23.1356 Cl    341 CCL4  -0.0812 
1808 CL      -2.7117    -5.9137    20.9461 Cl    341 CCL4  -0.0812 
1809 CL      -1.1170    -6.9318    23.0796 Cl    341 CCL4  -0.0812 
1810 CL      -1.9918    33.3056     4.0825 Cl    342 CCL4  -0.0812 
1811 C       -2.2978    33.4557     2.3773 C.3   342 CCL4   0.3246 
1812 CL      -1.2274    34.6239     1.5943 Cl    342 CCL4  -0.0812 
1813 CL      -3.9682    33.9286     2.0294 Cl    342 CCL4  -0.0812 
1814 CL      -2.1331    31.8335     1.5612 Cl    342 CCL4  -0.0812 
1815 CL      -9.0932    34.8959     4.4712 Cl    343 CCL4  -0.0812 
1816 C       -8.3909    33.8980     3.1153 C.3   343 CCL4   0.3246 
1817 CL      -7.0071    33.0621     3.7896 Cl    343 CCL4  -0.0812 
1818 CL      -7.8360    35.0752     1.9451 Cl    343 CCL4  -0.0812 
1819 CL      -9.5073    32.7302     2.5040 Cl    343 CCL4  -0.0812 
1820 CL      -1.0179    35.2118    22.7676 Cl    344 CCL4  -0.0812 
1821 C       -1.4039    33.7566    23.8156 C.3   344 CCL4   0.3246 
1822 CL      -3.1075    33.7820    24.4261 Cl    344 CCL4  -0.0812 
1823 CL      -0.2775    33.6121    25.2142 Cl    344 CCL4  -0.0812 
1824 CL      -1.0207    32.3532    22.7866 Cl    344 CCL4  -0.0812 
1825 CL      -7.0543    -4.2017   -11.9472 Cl    345 CCL4  -0.0812 
1826 C       -8.4113    -4.9645   -11.0578 C.3   345 CCL4   0.3246 
1827 CL      -9.9301    -4.3819   -11.8201 Cl    345 CCL4  -0.0812 
1828 CL      -8.4022    -4.3731    -9.4072 Cl    345 CCL4  -0.0812 
1829 CL      -8.1429    -6.7019   -11.1529 Cl    345 CCL4  -0.0812 
1830 CL       1.2047    31.1759    -6.7721 Cl    346 CCL4  -0.0812 
1831 C        2.1056    32.2487    -5.6983 C.3   346 CCL4   0.3246 
1832 CL       3.2655    33.3360    -6.5068 Cl    346 CCL4  -0.0812 
1833 CL       3.0776    31.1640    -4.4504 Cl    346 CCL4  -0.0812 
1834 CL       0.9996    33.2142    -4.7187 Cl    346 CCL4  -0.0812 
1835 CL       0.1275   -16.9543    -7.9537 Cl    347 CCL4  -0.0812 
1836 C       -1.4465   -16.6767    -7.0842 C.3   347 CCL4   0.3246 
1837 CL      -1.1733   -15.7287    -5.6518 Cl    347 CCL4  -0.0812 
1838 CL      -2.1478   -18.2939    -6.6387 Cl    347 CCL4  -0.0812 
1839 CL      -2.4764   -15.7947    -8.1359 Cl    347 CCL4  -0.0812 
1840 CL      -1.5648    -7.2507    -1.9818 Cl    348 CCL4  -0.0812 
1841 C       -2.1539    -5.6408    -1.2638 C.3   348 CCL4   0.3246 
1842 CL      -2.0234    -5.8866     0.4818 Cl    348 CCL4  -0.0812 
1843 CL      -3.7346    -5.0621    -1.6594 Cl    348 CCL4  -0.0812 
1844 CL      -0.9258    -4.3548    -1.6853 Cl    348 CCL4  -0.0812 
1845 CL       6.5122   -15.8616    -4.1216 Cl    349 CCL4  -0.0812 
1846 C        7.1095   -17.0640    -3.0150 C.3   349 CCL4   0.3246 
1847 CL       6.3514   -18.6336    -3.4192 Cl    349 CCL4  -0.0812 
1848 CL       6.6478   -16.6568    -1.3124 Cl    349 CCL4  -0.0812 
1849 CL       8.8732   -17.2737    -3.0280 Cl    349 CCL4  -0.0812 
1850 CL       0.1702   -12.5920   -13.5199 Cl    350 CCL4  -0.0812 
1851 C       -0.5202   -13.7222   -12.3235 C.3   350 CCL4   0.3246 
1852 CL      -1.6562   -14.8175   -13.3223 Cl    350 CCL4  -0.0812 
1853 CL      -1.4729   -12.6734   -11.1725 Cl    350 CCL4  -0.0812 
1854 CL       0.6486   -14.7912   -11.5591 Cl    350 CCL4  -0.0812 
1855 CL      -0.5261    -8.5897    -6.1383 Cl    351 CCL4  -0.0812 
1856 C       -0.9142    -8.9053    -7.8952 C.3   351 CCL4   0.3246 
1857 CL      -2.1132   -10.3267    -7.9119 Cl    351 CCL4  -0.0812 
1858 CL       0.6290    -9.4925    -8.6581 Cl    351 CCL4  -0.0812 
1859 CL      -1.5582    -7.5240    -8.6449 Cl    351 CCL4  -0.0812 
1860 CL      -4.4399    -9.8465   -10.7224 Cl    352 CCL4  -0.0812 
1861 C       -5.5645   -10.6376    -9.6260 C.3   352 CCL4   0.3246 
1862 CL      -5.1654   -12.3189    -9.3698 Cl    352 CCL4  -0.0812 
1863 CL      -7.2087   -10.5152   -10.3725 Cl    352 CCL4  -0.0812 
1864 CL      -5.5734    -9.8777    -8.0017 Cl    352 CCL4  -0.0812 
1865 CL       0.2876    -9.6144   -15.0851 Cl    353 CCL4  -0.0812 
1866 C       -0.7039    -8.7841   -13.8061 C.3   353 CCL4   0.3246 
1867 CL      -0.6261    -9.4622   -12.2086 Cl    353 CCL4  -0.0812 
1868 CL      -2.4297    -8.6888   -14.1889 Cl    353 CCL4  -0.0812 
1869 CL      -0.0939    -7.0886   -13.7715 Cl    353 CCL4  -0.0812 
1870 CL      -5.3075    -4.1802    -5.9451 Cl    354 CCL4  -0.0812 
1871 C       -4.7622    -5.8713    -6.2369 C.3   354 CCL4   0.3246 
1872 CL      -5.7223    -6.9701    -5.2596 Cl    354 CCL4  -0.0812 
1873 CL      -3.0975    -6.1463    -5.8364 Cl    354 CCL4  -0.0812 
1874 CL      -4.9537    -6.3038    -7.9151 Cl    354 CCL4  -0.0812 
1875 CL      -4.7473   -14.4014   -14.9706 Cl    355 CCL4  -0.0812 
1876 C       -4.4866   -12.6889   -15.0657 C.3   355 CCL4   0.3246 
1877 CL      -5.6086   -11.8341   -16.0299 Cl    355 CCL4  -0.0812 
1878 CL      -2.7632   -12.4913   -15.8370 Cl    355 CCL4  -0.0812 
1879 CL      -4.2478   -12.0070   -13.4071 Cl    355 CCL4  -0.0812 
1880 CL       3.7143    -9.5548    -1.7074 Cl    356 CCL4  -0.0812 
1881 C        2.1295    -9.5644    -0.9062 C.3   356 CCL4   0.3246 
1882 CL       1.9926   -10.7740     0.4104 Cl    356 CCL4  -0.0812 
1883 CL       0.7831    -9.8008    -2.1450 Cl    356 CCL4  -0.0812 
1884 CL       1.7711    -7.8816    -0.3528 Cl    356 CCL4  -0.0812 
1885 CL       1.0585   -11.7527    -5.6585 Cl    357 CCL4  -0.0812 
1886 C        1.7162   -12.9659    -6.7835 C.3   357 CCL4   0.3246 
1887 CL       0.5738   -13.3780    -8.0331 Cl    357 CCL4  -0.0812 
1888 CL       2.2105   -14.3810    -5.9502 Cl    357 CCL4  -0.0812 
1889 CL       3.0559   -12.2554    -7.6629 Cl    357 CCL4  -0.0812 
1890 CL       5.5800    -9.8853    -7.1893 Cl    358 CCL4  -0.0812 
1891 C        5.0849   -10.0885    -5.3849 C.3   358 CCL4   0.3246 
1892 CL       3.4074    -9.3901    -5.0899 Cl    358 CCL4  -0.0812 
1893 CL       6.3113    -9.1431    -4.4017 Cl    358 CCL4  -0.0812 
1894 CL       5.1798   -11.7912    -4.9049 Cl    358 CCL4  -0.0812 
1895 CL      -3.4226   -14.8693    -0.5773 Cl    359 CCL4  -0.0812 
1896 C       -4.9466   -15.2789    -1.3566 C.3   359 CCL4   0.3246 
1897 CL      -6.3399   -14.5342    -0.6341 Cl    359 CCL4  -0.0812 
1898 CL      -5.1050   -17.0604    -1.3813 Cl    359 CCL4  -0.0812 
1899 CL      -4.8636   -14.7790    -3.0171 Cl    359 CCL4  -0.0812 
1900 CL      -3.5306    -9.6573    -4.1513 Cl    360 CCL4  -0.0812 
1901 C       -3.8891   -11.4416    -4.1359 C.3   360 CCL4   0.3246 
1902 CL      -5.0362   -12.0152    -5.3150 Cl    360 CCL4  -0.0812 
1903 CL      -4.6527   -11.6753    -2.4842 Cl    360 CCL4  -0.0812 
1904 CL      -2.4015   -12.4500    -4.1931 Cl    360 CCL4  -0.0812 
1905 CL       2.7965    -3.9739    -4.6077 Cl    361 CCL4  -0.0812 
1906 C        2.9140    -5.7345    -4.7571 C.3   361 CCL4   0.3246 
1907 CL       4.5233    -6.2484    -4.3358 Cl    361 CCL4  -0.0812 
1908 CL       2.8334    -6.1871    -6.4893 Cl    361 CCL4  -0.0812 
1909 CL       1.7546    -6.5121    -3.7089 Cl    361 CCL4  -0.0812 
1910 CL      -6.9902    -7.1390    -1.7306 Cl    362 CCL4  -0.0812 
1911 C       -6.4513    -8.2118    -0.3264 C.3   362 CCL4   0.3246 
1912 CL      -7.2826    -9.7548    -0.4107 Cl    362 CCL4  -0.0812 
1913 CL      -6.9360    -7.4006     1.1493 Cl    362 CCL4  -0.0812 
1914 CL      -4.6350    -8.4324    -0.5404 Cl    362 CCL4  -0.0812 
1915 CL      -1.5835   -11.9924    -0.6012 Cl    363 CCL4  -0.0812 
1916 C       -2.0325   -11.5027     1.0464 C.3   363 CCL4   0.3246 
1917 CL      -1.3556   -12.9181     1.9808 Cl    363 CCL4  -0.0812 
1918 CL      -3.8107   -11.4358     1.2694 Cl    363 CCL4  -0.0812 
1919 CL      -1.3546    -9.9411     1.4931 Cl    363 CCL4  -0.0812 
1920 CL       2.6597   -15.0673    -0.0344 Cl    364 CCL4  -0.0812 
1921 C        2.0258   -14.9347    -1.6933 C.3   364 CCL4   0.3246 
1922 CL       3.0352   -15.7481    -2.8799 Cl    364 CCL4  -0.0812 
1923 CL       1.8150   -13.1376    -2.1482 Cl    364 CCL4  -0.0812 
1924 CL       0.4647   -15.6853    -1.7937 Cl    364 CCL4  -0.0812 
1925 CL      -8.5067   -12.5626    -3.3555 Cl    365 CCL4  -0.0812 
1926 C       -8.5976   -11.7000    -4.9127 C.3   365 CCL4   0.3246 
1927 CL      -7.7693   -10.0591    -4.9166 Cl    365 CCL4  -0.0812 
1928 CL     -10.3247   -11.1849    -5.0870 Cl    365 CCL4  -0.0812 
1929 CL      -8.0002   -12.6658    -6.3133 Cl    365 CCL4  -0.0812 
1930 CL      -7.4659   -16.0441    -4.5856 Cl    366 CCL4  -0.0812 
1931 C       -6.3821   -16.6422    -5.8546 C.3   366 CCL4   0.3246 
1932 CL      -7.3285   -17.9738    -6.5587 Cl    366 CCL4  -0.0812 
1933 CL      -5.0500   -17.4942    -5.0412 Cl    366 CCL4  -0.0812 
1934 CL      -5.8744   -15.3909    -7.0224 Cl    366 CCL4  -0.0812 
1935 CL       5.8561   -12.5650    -0.4560 Cl    367 CCL4  -0.0812 
1936 C        5.9674   -12.7479     1.2827 C.3   367 CCL4   0.3246 
1937 CL       7.6485   -12.0677     1.7156 Cl    367 CCL4  -0.0812 
1938 CL       5.8598   -14.5038     1.6748 Cl    367 CCL4  -0.0812 
1939 CL       4.7734   -11.8123     2.1624 Cl    367 CCL4  -0.0812 
1940 CL       7.4750    -8.2515   -10.2852 Cl    368 CCL4  -0.0812 
1941 C        9.1148    -7.8104   -10.7848 C.3   368 CCL4   0.3246 
1942 CL      10.0510    -7.4473    -9.4095 Cl    368 CCL4  -0.0812 
1943 CL       9.0384    -6.2856   -11.6785 Cl    368 CCL4  -0.0812 
1944 CL       9.7231    -9.1493   -11.7434 Cl    368 CCL4  -0.0812 
1945 CL       4.8636    -8.2824   -16.2758 Cl    369 CCL4  -0.0812 
1946 C        6.5480    -8.0308   -15.8068 C.3   369 CCL4   0.3246 
1947 CL       6.8477    -8.6512   -14.1890 Cl    369 CCL4  -0.0812 
1948 CL       6.6773    -6.2068   -15.7987 Cl    369 CCL4  -0.0812 
1949 CL       7.5453    -8.8428   -17.1342 Cl    369 CCL4  -0.0812 
1950 CL       5.5410   -16.5088    -8.3155 Cl    370 CCL4  -0.0812 
1951 C        4.8631   -16.1592    -9.8788 C.3   370 CCL4   0.3246 
1952 CL       4.0447   -17.6566   -10.3103 Cl    370 CCL4  -0.0812 
1953 CL       5.9974   -15.7478   -11.2120 Cl    370 CCL4  -0.0812 
1954 CL       3.6230   -14.8760    -9.8511 Cl    370 CCL4  -0.0812 
1955 CL       6.1111    -3.4379    -7.0340 Cl    371 CCL4  -0.0812 
1956 C        7.3813    -4.6831    -7.1847 C.3   371 CCL4   0.3246 
1957 CL       8.3631    -4.6882    -5.6866 Cl    371 CCL4  -0.0812 
1958 CL       8.2356    -4.2976    -8.7621 Cl    371 CCL4  -0.0812 
1959 CL       6.6650    -6.3190    -7.2752 Cl    371 CCL4  -0.0812 
1960 CL       5.9736    -6.7218    -0.8705 Cl    372 CCL4  -0.0812 
1961 C        7.6361    -7.3188    -1.0374 C.3   372 CCL4   0.3246 
1962 CL       8.2174    -6.6612    -2.6201 Cl    372 CCL4  -0.0812 
1963 CL       7.7624    -9.0476    -0.8790 Cl    372 CCL4  -0.0812 
1964 CL       8.5923    -6.5563     0.3197 Cl    372 CCL4  -0.0812 
1965 CL      11.2646   -13.0977    -3.1541 Cl    373 CCL4  -0.0812 
1966 C        9.9177   -12.7555    -2.1224 C.3   373 CCL4   0.3246 
1967 CL       8.5871   -12.0443    -3.0489 Cl    373 CCL4  -0.0812 
1968 CL      10.4233   -11.3204    -1.1879 Cl    373 CCL4  -0.0812 
1969 CL       9.2279   -14.0956    -1.0897 Cl    373 CCL4  -0.0812 
1970 CL       5.9515    -8.9603     4.3645 Cl    374 CCL4  -0.0812 
1971 C        4.9225    -7.7041     3.7702 C.3   374 CCL4   0.3246 
1972 CL       5.9691    -6.6850     2.7509 Cl    374 CCL4  -0.0812 
1973 CL       4.1053    -6.8520     5.1849 Cl    374 CCL4  -0.0812 
1974 CL       3.5677    -8.3845     2.7855 Cl    374 CCL4  -0.0812 
1975 CL       4.5195   -14.8226    23.2326 Cl    375 CCL4  -0.0812 
1976 C        4.0942   -13.0247    22.8613 C.3   375 CCL4   0.3246 
1977 CL       5.0040   -11.9081    23.8723 Cl    375 CCL4  -0.0812 
1978 CL       2.3598   -12.8039    23.2800 Cl    375 CCL4  -0.0812 
1979 CL       4.4905   -12.6698    21.1962 Cl    375 CCL4  -0.0812 
1980 CL       9.1414   -12.0138    -8.8192 Cl    376 CCL4  -0.0812 
1981 C        8.1238   -13.2759    -8.0276 C.3   376 CCL4   0.3246 
1982 CL       8.4737   -13.3708    -6.2699 Cl    376 CCL4  -0.0812 
1983 CL       8.4394   -14.8762    -8.7112 Cl    376 CCL4  -0.0812 
1984 CL       6.3599   -12.9737    -8.3646 Cl    376 CCL4  -0.0812 
1985 CL       3.4113   -10.0654   -13.4370 Cl    377 CCL4  -0.0812 
1986 C        3.8437   -11.3311   -12.2943 C.3   377 CCL4   0.3246 
1987 CL       2.5419   -11.3030   -11.1520 Cl    377 CCL4  -0.0812 
1988 CL       5.4152   -10.9686   -11.3978 Cl    377 CCL4  -0.0812 
1989 CL       4.1029   -12.8479   -13.0694 Cl    377 CCL4  -0.0812 
1990 CL       3.7127    -6.6447   -12.2479 Cl    378 CCL4  -0.0812 
1991 C        3.3379    -6.4378   -10.5655 C.3   378 CCL4   0.3246 
1992 CL       4.2814    -5.0139   -10.0515 Cl    378 CCL4  -0.0812 
1993 CL       3.8450    -7.8720    -9.6901 Cl    378 CCL4  -0.0812 
1994 CL       1.6576    -6.1339   -10.1878 Cl    378 CCL4  -0.0812 
1995 CL      -8.7018   -15.7604    11.7745 Cl    379 CCL4  -0.0812 
1996 C       -8.9361   -14.1189    12.4387 C.3   379 CCL4   0.3246 
1997 CL     -10.4309   -13.4920    11.7305 Cl    379 CCL4  -0.0812 
1998 CL      -7.5132   -13.0624    12.2162 Cl    379 CCL4  -0.0812 
1999 CL      -9.1478   -14.3297    14.2021 Cl    379 CCL4  -0.0812 
2000 CL       2.9550    33.7353     8.6337 Cl    380 CCL4  -0.0812 
2001 C        3.4564    33.7351    10.2542 C.3   380 CCL4   0.3246 
2002 CL       3.1199    32.2395    11.0389 Cl    380 CCL4  -0.0812 
2003 CL       2.8982    35.0905    11.1403 Cl    380 CCL4  -0.0812 
2004 CL       5.2484    33.8616    10.2319 Cl    380 CCL4  -0.0812 
2005 CL      -4.8919    36.0418    13.6682 Cl    381 CCL4  -0.0812 
2006 C       -4.6056    34.2869    13.7954 C.3   381 CCL4   0.3246 
2007 CL      -4.8504    33.7717    15.4862 Cl    381 CCL4  -0.0812 
2008 CL      -3.0665    33.6875    13.2319 Cl    381 CCL4  -0.0812 
2009 CL      -5.8597    33.4737    12.8275 Cl    381 CCL4  -0.0812 
2010 CL      -3.4425    -6.5260    13.8506 Cl    382 CCL4  -0.0812 
2011 C       -2.9083    -4.9646    13.1652 C.3   382 CCL4   0.3246 
2012 CL      -3.8365    -3.5496    13.6989 Cl    382 CCL4  -0.0812 
2013 CL      -2.7617    -4.9544    11.4177 Cl    382 CCL4  -0.0812 
2014 CL      -1.2748    -4.6989    13.8223 Cl    382 CCL4  -0.0812 
2015 CL       4.0843    -3.7937     9.5930 Cl    383 CCL4  -0.0812 
2016 C        2.2855    -4.2092     9.5887 C.3   383 CCL4   0.3246 
2017 CL       2.0751    -5.9086     8.9809 Cl    383 CCL4  -0.0812 
2018 CL       1.4424    -3.0876     8.5376 Cl    383 CCL4  -0.0812 
2019 CL       1.6145    -3.9262    11.2533 Cl    383 CCL4  -0.0812 
2020 CL      -3.9989    -6.1350     8.5544 Cl    384 CCL4  -0.0812 
2021 C       -2.4773    -5.8459     7.6965 C.3   384 CCL4   0.3246 
2022 CL      -2.1411    -4.0740     8.1356 Cl    384 CCL4  -0.0812 
2023 CL      -2.7117    -5.9137     5.9461 Cl    384 CCL4  -0.0812 
2024 CL      -1.1170    -6.9318     8.0796 Cl    384 CCL4  -0.0812 
2025 CL      -1.0179    35.2118     7.7676 Cl    385 CCL4  -0.0812 
2026 C       -1.4039    33.7566     8.8156 C.3   385 CCL4   0.3246 
2027 CL      -3.1075    33.7820     9.4261 Cl    385 CCL4  -0.0812 
2028 CL      -0.2775    33.6121    10.2142 Cl    385 CCL4  -0.0812 
2029 CL      -1.0207    32.3532     7.7866 Cl    385 CCL4  -0.0812 
2030 CL      -8.1871    31.7372     6.9545 Cl    386 CCL4  -0.0812 
2031 C       -6.9418    32.6708     7.7904 C.3   386 CCL4   0.3246 
2032 CL      -7.1318    32.2156     9.5877 Cl    386 CCL4  -0.0812 
2033 CL      -7.3157    34.4653     7.8946 Cl    386 CCL4  -0.0812 
2034 CL      -5.4307    32.1646     7.2006 Cl    386 CCL4  -0.0812 
2035 CL      -7.0543    -4.2017    13.0528 Cl    387 CCL4  -0.0812 
2036 C       -8.4113    -4.9645    13.9422 C.3   387 CCL4   0.3246 
2037 CL      -9.9301    -4.3819    13.1799 Cl    387 CCL4  -0.0812 
2038 CL      -8.4022    -4.3731    15.5928 Cl    387 CCL4  -0.0812 
2039 CL      -8.1429    -6.7019    13.8471 Cl    387 CCL4  -0.0812 
2040 CL      -5.4037    -3.6157     6.2759 Cl    388 CCL4  -0.0812 
2041 C       -6.1310    -4.3831     4.7744 C.3   388 CCL4   0.3246 
2042 CL      -7.4342    -3.3737     4.0854 Cl    388 CCL4  -0.0812 
2043 CL      -6.3161    -6.1182     4.9550 Cl    388 CCL4  -0.0812 
2044 CL      -4.6587    -4.2637     3.6313 Cl    388 CCL4  -0.0812 
2045 CL       1.2047    31.1759    18.2279 Cl    389 CCL4  -0.0812 
2046 C        2.1056    32.2487    19.3017 C.3   389 CCL4   0.3246 
2047 CL       3.2655    33.3360    18.4932 Cl    389 CCL4  -0.0812 
2048 CL       3.0776    31.1640    20.5496 Cl    389 CCL4  -0.0812 
2049 CL       0.9996    33.2142    20.2813 Cl    389 CCL4  -0.0812 
2050 CL       0.1275   -16.9543    17.0463 Cl    390 CCL4  -0.0812 
2051 C       -1.4465   -16.6767    17.9158 C.3   390 CCL4   0.3246 
2052 CL      -1.1733   -15.7287    19.3482 Cl    390 CCL4  -0.0812 
2053 CL      -2.1478   -18.2939    18.3613 Cl    390 CCL4  -0.0812 
2054 CL      -2.4764   -15.7947    16.8641 Cl    390 CCL4  -0.0812 
2055 CL       0.1702   -12.5920    11.4801 Cl    391 CCL4  -0.0812 
2056 C       -0.5202   -13.7222    12.6765 C.3   391 CCL4   0.3246 
2057 CL      -1.6562   -14.8175    11.6777 Cl    391 CCL4  -0.0812 
2058 CL      -1.4729   -12.6734    13.8275 Cl    391 CCL4  -0.0812 
2059 CL       0.6486   -14.7912    13.4409 Cl    391 CCL4  -0.0812 
2060 CL      -0.5261    -8.5897    18.8617 Cl    392 CCL4  -0.0812 
2061 C       -0.9142    -8.9053    17.1048 C.3   392 CCL4   0.3246 
2062 CL      -2.1132   -10.3267    17.0881 Cl    392 CCL4  -0.0812 
2063 CL       0.6290    -9.4925    16.3419 Cl    392 CCL4  -0.0812 
2064 CL      -1.5582    -7.5240    16.3551 Cl    392 CCL4  -0.0812 
2065 CL      -4.4399    -9.8465    14.2776 Cl    393 CCL4  -0.0812 
2066 C       -5.5645   -10.6376    15.3740 C.3   393 CCL4   0.3246 
2067 CL      -5.1654   -12.3189    15.6302 Cl    393 CCL4  -0.0812 
2068 CL      -7.2087   -10.5152    14.6275 Cl    393 CCL4  -0.0812 
2069 CL      -5.5734    -9.8777    16.9983 Cl    393 CCL4  -0.0812 
2070 CL       0.2876    -9.6144     9.9149 Cl    394 CCL4  -0.0812 
2071 C       -0.7039    -8.7841    11.1939 C.3   394 CCL4   0.3246 
2072 CL      -0.6261    -9.4622    12.7914 Cl    394 CCL4  -0.0812 
2073 CL      -2.4297    -8.6888    10.8111 Cl    394 CCL4  -0.0812 
2074 CL      -0.0939    -7.0886    11.2285 Cl    394 CCL4  -0.0812 
2075 CL       1.7382   -11.1618     4.5028 Cl    395 CCL4  -0.0812 
2076 C        1.1009   -10.0733     5.7915 C.3   395 CCL4   0.3246 
2077 CL      -0.2215   -10.7951     6.7741 Cl    395 CCL4  -0.0812 
2078 CL       0.5550    -8.6224     4.9643 Cl    395 CCL4  -0.0812 
2079 CL       2.4572    -9.5421     6.7433 Cl    395 CCL4  -0.0812 
2080 CL      -4.5449   -16.3590     5.7860 Cl    396 CCL4  -0.0812 
2081 C       -4.0327   -14.9071     5.0243 C.3   396 CCL4   0.3246 
2082 CL      -4.2331   -13.5636     6.1059 Cl    396 CCL4  -0.0812 
2083 CL      -4.8781   -14.4972     3.5501 Cl    396 CCL4  -0.0812 
2084 CL      -2.2462   -14.9421     4.7088 Cl    396 CCL4  -0.0812 
2085 CL      -4.0766    -9.0918     6.5325 Cl    397 CCL4  -0.0812 
2086 C       -4.1311    -9.6680     4.8883 C.3   397 CCL4   0.3246 
2087 CL      -4.0244    -8.3581     3.6966 Cl    397 CCL4  -0.0812 
2088 CL      -5.6731   -10.4186     4.7447 Cl    397 CCL4  -0.0812 
2089 CL      -2.7385   -10.6998     4.5542 Cl    397 CCL4  -0.0812 
2090 CL      -7.1440    -7.8586     8.2767 Cl    398 CCL4  -0.0812 
2091 C       -7.5464    -7.9861    10.0856 C.3   398 CCL4   0.3246 
2092 CL      -8.3567    -9.5998    10.2721 Cl    398 CCL4  -0.0812 
2093 CL      -8.8704    -6.8264    10.4240 Cl    398 CCL4  -0.0812 
2094 CL      -6.1080    -7.9732    11.0425 Cl    398 CCL4  -0.0812 
2095 CL      -4.7473   -14.4014    10.0294 Cl    399 CCL4  -0.0812 
2096 C       -4.4866   -12.6889     9.9343 C.3   399 CCL4   0.3246 
2097 CL      -5.6086   -11.8341     8.9701 Cl    399 CCL4  -0.0812 
2098 CL      -2.7632   -12.4913     9.1630 Cl    399 CCL4  -0.0812 
2099 CL      -4.2478   -12.0070    11.5929 Cl    399 CCL4  -0.0812 
2100 CL      -8.6094   -13.6693     8.4612 Cl    400 CCL4  -0.0812 
2101 C       -8.9407   -12.9009     6.8880 C.3   400 CCL4   0.3246 
2102 CL     -10.5798   -13.1016     6.3558 Cl    400 CCL4  -0.0812 
2103 CL      -7.9395   -13.5650     5.6348 Cl    400 CCL4  -0.0812 
2104 CL      -8.7155   -11.1736     7.0398 Cl    400 CCL4  -0.0812 
2105 CL       3.9646   -16.4315     5.0938 Cl    401 CCL4  -0.0812 
2106 C        2.2630   -16.3734     4.8084 C.3   401 CCL4   0.3246 
2107 CL       1.5571   -17.8366     5.2673 Cl    401 CCL4  -0.0812 
2108 CL       1.9272   -15.9229     3.0685 Cl    401 CCL4  -0.0812 
2109 CL       1.6083   -15.0051     5.8253 Cl    401 CCL4  -0.0812 
2110 CL       1.0585   -11.7527    19.3415 Cl    402 CCL4  -0.0812 
2111 C        1.7162   -12.9659    18.2165 C.3   402 CCL4   0.3246 
2112 CL       0.5738   -13.3780    16.9669 Cl    402 CCL4  -0.0812 
2113 CL       2.2105   -14.3810    19.0498 Cl    402 CCL4  -0.0812 
2114 CL       3.0559   -12.2554    17.3371 Cl    402 CCL4  -0.0812 
2115 CL       2.7965    -3.9739    20.3923 Cl    403 CCL4  -0.0812 
2116 C        2.9140    -5.7345    20.2429 C.3   403 CCL4   0.3246 
2117 CL       4.5233    -6.2484    20.6642 Cl    403 CCL4  -0.0812 
2118 CL       2.8334    -6.1871    18.5107 Cl    403 CCL4  -0.0812 
2119 CL       1.7546    -6.5121    21.2911 Cl    403 CCL4  -0.0812 
2120 CL      -8.5067   -12.5626    21.6445 Cl    404 CCL4  -0.0812 
2121 C       -8.5976   -11.7000    20.0873 C.3   404 CCL4   0.3246 
2122 CL      -7.7693   -10.0591    20.0834 Cl    404 CCL4  -0.0812 
2123 CL     -10.3247   -11.1849    19.9130 Cl    404 CCL4  -0.0812 
2124 CL      -8.0002   -12.6658    18.6867 Cl    404 CCL4  -0.0812 
2125 CL      -7.4659   -16.0441    20.4144 Cl    405 CCL4  -0.0812 
2126 C       -6.3821   -16.6422    19.1454 C.3   405 CCL4   0.3246 
2127 CL      -7.3285   -17.9738    18.4413 Cl    405 CCL4  -0.0812 
2128 CL      -5.0500   -17.4942    19.9588 Cl    405 CCL4  -0.0812 
2129 CL      -5.8744   -15.3909    17.9776 Cl    405 CCL4  -0.0812 
2130 CL       9.2374    -8.2520     4.5409 Cl    406 CCL4  -0.0812 
2131 C        9.7857    -6.6641     4.9409 C.3   406 CCL4   0.3246 
2132 CL      10.1625    -5.7000     3.5650 Cl    406 CCL4  -0.0812 
2133 CL      11.1067    -6.7047     6.0694 Cl    406 CCL4  -0.0812 
2134 CL       8.4838    -5.7688     5.7742 Cl    406 CCL4  -0.0812 
2135 CL       7.4750    -8.2515    14.7148 Cl    407 CCL4  -0.0812 
2136 C        9.1148    -7.8104    14.2152 C.3   407 CCL4   0.3246 
2137 CL      10.0510    -7.4473    15.5905 Cl    407 CCL4  -0.0812 
2138 CL       9.0384    -6.2856    13.3215 Cl    407 CCL4  -0.0812 
2139 CL       9.7231    -9.1493    13.2566 Cl    407 CCL4  -0.0812 
2140 CL       9.4329   -16.9959     6.0993 Cl    408 CCL4  -0.0812 
2141 C        7.7481   -16.6893     5.6557 C.3   408 CCL4   0.3246 
2142 CL       6.7201   -17.5032     6.8449 Cl    408 CCL4  -0.0812 
2143 CL       7.3320   -17.2870     4.0133 Cl    408 CCL4  -0.0812 
2144 CL       7.2153   -14.9967     5.7545 Cl    408 CCL4  -0.0812 
2145 CL       4.8636    -8.2824     8.7242 Cl    409 CCL4  -0.0812 
2146 C        6.5480    -8.0308     9.1932 C.3   409 CCL4   0.3246 
2147 CL       6.8477    -8.6512    10.8110 Cl    409 CCL4  -0.0812 
2148 CL       6.6773    -6.2068     9.2013 Cl    409 CCL4  -0.0812 
2149 CL       7.5453    -8.8428     7.8658 Cl    409 CCL4  -0.0812 
2150 CL       5.5410   -16.5088    16.6845 Cl    410 CCL4  -0.0812 
2151 C        4.8631   -16.1592    15.1212 C.3   410 CCL4   0.3246 
2152 CL       4.0447   -17.6566    14.6897 Cl    410 CCL4  -0.0812 
2153 CL       5.9974   -15.7478    13.7880 Cl    410 CCL4  -0.0812 
2154 CL       3.6230   -14.8760    15.1489 Cl    410 CCL4  -0.0812 
2155 CL       6.1111    -3.4379    17.9660 Cl    411 CCL4  -0.0812 
2156 C        7.3813    -4.6831    17.8153 C.3   411 CCL4   0.3246 
2157 CL       8.3631    -4.6882    19.3134 Cl    411 CCL4  -0.0812 
2158 CL       8.2356    -4.2976    16.2379 Cl    411 CCL4  -0.0812 
2159 CL       6.6650    -6.3190    17.7248 Cl    411 CCL4  -0.0812 
2160 CL       4.5195   -14.8226     8.2326 Cl    412 CCL4  -0.0812 
2161 C        4.0942   -13.0247     7.8613 C.3   412 CCL4   0.3246 
2162 CL       5.0040   -11.9081     8.8723 Cl    412 CCL4  -0.0812 
2163 CL       2.3598   -12.8039     8.2800 Cl    412 CCL4  -0.0812 
2164 CL       4.4905   -12.6698     6.1962 Cl    412 CCL4  -0.0812 
2165 CL       9.1414   -12.0138    16.1808 Cl    413 CCL4  -0.0812 
2166 C        8.1238   -13.2759    16.9724 C.3   413 CCL4   0.3246 
2167 CL       8.4737   -13.3708    18.7301 Cl    413 CCL4  -0.0812 
2168 CL       8.4394   -14.8762    16.2888 Cl    413 CCL4  -0.0812 
2169 CL       6.3599   -12.9737    16.6354 Cl    413 CCL4  -0.0812 
2170 CL       3.4113   -10.0654    11.5630 Cl    414 CCL4  -0.0812 
2171 C        3.8437   -11.3311    12.7057 C.3   414 CCL4   0.3246 
2172 CL       2.5419   -11.3030    13.8480 Cl    414 CCL4  -0.0812 
2173 CL       5.4152   -10.9686    13.6022 Cl    414 CCL4  -0.0812 
2174 CL       4.1029   -12.8479    11.9306 Cl    414 CCL4  -0.0812 
2175 CL       3.7127    -6.6447    12.7521 Cl    415 CCL4  -0.0812 
2176 C        3.3379    -6.4378    14.4345 C.3   415 CCL4   0.3246 
2177 CL       4.2814    -5.0139    14.9485 Cl    415 CCL4  -0.0812 
2178 CL       3.8450    -7.8720    15.3099 Cl    415 CCL4  -0.0812 
2179 CL       1.6576    -6.1339    14.8122 Cl    415 CCL4  -0.0812 
2180 CL      -8.7018     9.2396   -13.2255 Cl    416 CCL4  -0.0812 
2181 C       -8.9361    10.8811   -12.5613 C.3   416 CCL4   0.3246 
2182 CL     -10.4309    11.5080   -13.2695 Cl    416 CCL4  -0.0812 
2183 CL      -7.5132    11.9376   -12.7838 Cl    416 CCL4  -0.0812 
2184 CL      -9.1478    10.6703   -10.7979 Cl    416 CCL4  -0.0812 
2185 CL       2.9550     7.2854   -16.3663 Cl    417 CCL4  -0.0812 
2186 C        3.4564     7.2852   -14.7458 C.3   417 CCL4   0.3246 
2187 CL       3.1199     5.7896   -13.9611 Cl    417 CCL4  -0.0812 
2188 CL       2.8982     8.6406   -13.8597 Cl    417 CCL4  -0.0812 
2189 CL       5.2484     7.4117   -14.7681 Cl    417 CCL4  -0.0812 
2190 CL       0.8398    -1.8842   -10.5786 Cl    418 CCL4  -0.0812 
2191 C        0.2420    -0.8663   -11.9738 C.3   418 CCL4   0.3246 
2192 CL      -0.9966    -1.6451   -13.0564 Cl    418 CCL4  -0.0812 
2193 CL       1.6195    -0.3055   -12.9729 Cl    418 CCL4  -0.0812 
2194 CL      -0.4889     0.6724   -11.2333 Cl    418 CCL4  -0.0812 
2195 CL      -4.8919     9.5919   -11.3318 Cl    419 CCL4  -0.0812 
2196 C       -4.6056     7.8370   -11.2046 C.3   419 CCL4   0.3246 
2197 CL      -4.8504     7.3218    -9.5138 Cl    419 CCL4  -0.0812 
2198 CL      -3.0665     7.2376   -11.7681 Cl    419 CCL4  -0.0812 
2199 CL      -5.8597     7.0238   -12.1725 Cl    419 CCL4  -0.0812 
2200 CL      -1.1200    -3.3155     3.2129 Cl    420 CCL4  -0.0812 
2201 C        0.0625    -2.9073     4.5053 C.3   420 CCL4   0.3246 
2202 CL       0.5306    -4.4581     5.1544 Cl    420 CCL4  -0.0812 
2203 CL      -0.8935    -2.0306     5.7265 Cl    420 CCL4  -0.0812 
2204 CL       1.4165    -2.0096     3.9416 Cl    420 CCL4  -0.0812 
2205 CL       2.2129     1.7440     3.6817 Cl    421 CCL4  -0.0812 
2206 C        0.5410     2.3413     3.5548 C.3   421 CCL4   0.3246 
2207 CL       0.1852     2.5933     1.7612 Cl    421 CCL4  -0.0812 
2208 CL       0.2115     3.8649     4.3945 Cl    421 CCL4  -0.0812 
2209 CL      -0.6928     1.1183     3.9797 Cl    421 CCL4  -0.0812 
2210 CL      -3.4425    18.4740   -11.1494 Cl    422 CCL4  -0.0812 
2211 C       -2.9083    20.0354   -11.8348 C.3   422 CCL4   0.3246 
2212 CL      -3.8365    21.4504   -11.3011 Cl    422 CCL4  -0.0812 
2213 CL      -2.7617    20.0456   -13.5823 Cl    422 CCL4  -0.0812 
2214 CL      -1.2748    20.3011   -11.1777 Cl    422 CCL4  -0.0812 
2215 CL       0.5539     6.6743   -11.4991 Cl    423 CCL4  -0.0812 
2216 C        0.0454     4.9470   -11.2829 C.3   423 CCL4   0.3246 
2217 CL       1.4724     4.0036   -10.8187 Cl    423 CCL4  -0.0812 
2218 CL      -0.6157     4.2643   -12.7353 Cl    423 CCL4  -0.0812 
2219 CL      -1.0503     4.8316    -9.8320 Cl    423 CCL4  -0.0812 
2220 CL      -4.5517    -1.2034   -15.3956 Cl    424 CCL4  -0.0812 
2221 C       -6.3331    -1.7293   -15.2464 C.3   424 CCL4   0.3246 
2222 CL      -6.3485    -3.4224   -15.0401 Cl    424 CCL4  -0.0812 
2223 CL      -7.3024    -1.2976   -16.7341 Cl    424 CCL4  -0.0812 
2224 CL      -6.9945    -0.7994   -13.8235 Cl    424 CCL4  -0.0812 
2225 CL      -0.3624    -1.2923    -7.4919 Cl    425 CCL4  -0.0812 
2226 C       -0.8633    -2.9282    -7.1365 C.3   425 CCL4   0.3246 
2227 CL       0.3692    -4.0587    -7.6796 Cl    425 CCL4  -0.0812 
2228 CL      -2.3007    -3.3374    -8.0907 Cl    425 CCL4  -0.0812 
2229 CL      -1.1928    -3.0911    -5.4500 Cl    425 CCL4  -0.0812 
2230 CL      -4.0396    -0.5690   -11.5537 Cl    426 CCL4  -0.0812 
2231 C       -4.7835    -0.0784   -10.0025 C.3   426 CCL4   0.3246 
2232 CL      -3.5596     0.4103    -8.9297 Cl    426 CCL4  -0.0812 
2233 CL      -5.6604    -1.4919    -9.3865 Cl    426 CCL4  -0.0812 
2234 CL      -5.9740     1.2643   -10.3073 Cl    426 CCL4  -0.0812 
2235 CL       4.0843    21.2063   -15.4070 Cl    427 CCL4  -0.0812 
2236 C        2.2855    20.7908   -15.4113 C.3   427 CCL4   0.3246 
2237 CL       2.0751    19.0914   -16.0191 Cl    427 CCL4  -0.0812 
2238 CL       1.4424    21.9124   -16.4624 Cl    427 CCL4  -0.0812 
2239 CL       1.6145    21.0738   -13.7467 Cl    427 CCL4  -0.0812 
2240 CL      -3.9989    18.8650    23.5544 Cl    428 CCL4  -0.0812 
2241 C       -2.4773    19.1541    22.6965 C.3   428 CCL4   0.3246 
2242 CL      -2.1411    20.9260    23.1356 Cl    428 CCL4  -0.0812 
2243 CL      -2.7117    19.0863    20.9461 Cl    428 CCL4  -0.0812 
2244 CL      -1.1170    18.0682    23.0796 Cl    428 CCL4  -0.0812 
2245 CL       2.1849     4.1474    22.7156 Cl    429 CCL4  -0.0812 
2246 C        1.9374     2.5767    23.4813 C.3   429 CCL4   0.3246 
2247 CL       0.5586     2.6129    24.5648 Cl    429 CCL4  -0.0812 
2248 CL       3.3944     2.0907    24.4265 Cl    429 CCL4  -0.0812 
2249 CL       1.7147     1.2966    22.2023 Cl    429 CCL4  -0.0812 
2250 CL      -1.0179     8.7619    22.7676 Cl    430 CCL4  -0.0812 
2251 C       -1.4039     7.3067    23.8156 C.3   430 CCL4   0.3246 
2252 CL      -3.1075     7.3321    24.4261 Cl    430 CCL4  -0.0812 
2253 CL      -0.2775     7.1622    25.2142 Cl    430 CCL4  -0.0812 
2254 CL      -1.0207     5.9033    22.7866 Cl    430 CCL4  -0.0812 
2255 CL      -3.1667     1.6928   -14.3160 Cl    431 CCL4  -0.0812 
2256 C       -4.1809     2.9321   -13.5921 C.3   431 CCL4   0.3246 
2257 CL      -3.8515     4.4572   -14.4357 Cl    431 CCL4  -0.0812 
2258 CL      -3.5600     3.1761   -11.8740 Cl    431 CCL4  -0.0812 
2259 CL      -5.8563     2.4056   -13.6194 Cl    431 CCL4  -0.0812 
2260 CL      -7.0543    20.7983   -11.9472 Cl    432 CCL4  -0.0812 
2261 C       -8.4113    20.0355   -11.0578 C.3   432 CCL4   0.3246 
2262 CL      -9.9301    20.6181   -11.8201 Cl    432 CCL4  -0.0812 
2263 CL      -8.4022    20.6269    -9.4072 Cl    432 CCL4  -0.0812 
2264 CL      -8.1429    18.2981   -11.1529 Cl    432 CCL4  -0.0812 
2265 CL      -4.5545     1.1643    -2.9316 Cl    433 CCL4  -0.0812 
2266 C       -4.0823    -0.3017    -3.9214 C.3   433 CCL4   0.3246 
2267 CL      -5.6263    -0.8183    -4.6742 Cl    433 CCL4  -0.0812 
2268 CL      -3.3048    -1.6219    -2.9424 Cl    433 CCL4  -0.0812 
2269 CL      -3.0029     0.2833    -5.1786 Cl    433 CCL4  -0.0812 
2270 CL       1.4704    -2.1925     0.4060 Cl    434 CCL4  -0.0812 
2271 C        2.7366    -3.4710     0.7380 C.3   434 CCL4   0.3246 
2272 CL       3.9438    -2.7653     1.8204 Cl    434 CCL4  -0.0812 
2273 CL       3.4586    -3.8864    -0.8389 Cl    434 CCL4  -0.0812 
2274 CL       1.9685    -4.8835     1.5359 Cl    434 CCL4  -0.0812 
2275 CL       2.4076     6.4644    -0.8454 Cl    435 CCL4  -0.0812 
2276 C        3.1516     5.7658     0.5083 C.3   435 CCL4   0.3246 
2277 CL       2.1283     5.7990     1.9580 Cl    435 CCL4  -0.0812 
2278 CL       4.5265     6.7858     1.0147 Cl    435 CCL4  -0.0812 
2279 CL       3.7009     4.1364     0.1770 Cl    435 CCL4  -0.0812 
2280 CL      -8.7044    -1.6608    -0.6485 Cl    436 CCL4  -0.0812 
2281 C       -7.9374    -3.2404    -1.0724 C.3   436 CCL4   0.3246 
2282 CL      -9.3451    -4.2868    -1.4192 Cl    436 CCL4  -0.0812 
2283 CL      -7.1070    -3.7246     0.4084 Cl    436 CCL4  -0.0812 
2284 CL      -6.7775    -3.3064    -2.3933 Cl    436 CCL4  -0.0812 
2285 CL       1.2047     4.7260    -6.7721 Cl    437 CCL4  -0.0812 
2286 C        2.1056     5.7988    -5.6983 C.3   437 CCL4   0.3246 
2287 CL       3.2655     6.8861    -6.5068 Cl    437 CCL4  -0.0812 
2288 CL       3.0776     4.7141    -4.4504 Cl    437 CCL4  -0.0812 
2289 CL       0.9996     6.7643    -4.7187 Cl    437 CCL4  -0.0812 
2290 CL       0.1275     8.0457    -7.9537 Cl    438 CCL4  -0.0812 
2291 C       -1.4465     8.3233    -7.0842 C.3   438 CCL4   0.3246 
2292 CL      -1.1733     9.2713    -5.6518 Cl    438 CCL4  -0.0812 
2293 CL      -2.1478     6.7061    -6.6387 Cl    438 CCL4  -0.0812 
2294 CL      -2.4764     9.2053    -8.1359 Cl    438 CCL4  -0.0812 
2295 CL       5.1361     0.1997    -8.3907 Cl    439 CCL4  -0.0812 
2296 C        3.5977     0.6241    -7.8021 C.3   439 CCL4   0.3246 
2297 CL       2.5159     0.9429    -9.2447 Cl    439 CCL4  -0.0812 
2298 CL       3.6874     2.0740    -6.8645 Cl    439 CCL4  -0.0812 
2299 CL       2.8629    -0.6589    -6.8748 Cl    439 CCL4  -0.0812 
2300 CL      -1.5648    17.7493    -1.9818 Cl    440 CCL4  -0.0812 
2301 C       -2.1539    19.3592    -1.2638 C.3   440 CCL4   0.3246 
2302 CL      -2.0234    19.1134     0.4818 Cl    440 CCL4  -0.0812 
2303 CL      -3.7346    19.9379    -1.6594 Cl    440 CCL4  -0.0812 
2304 CL      -0.9258    20.6452    -1.6853 Cl    440 CCL4  -0.0812 
2305 CL       1.9529     1.5492    -1.9804 Cl    441 CCL4  -0.0812 
2306 C        0.9226     0.5677    -2.9425 C.3   441 CCL4   0.3246 
2307 CL       0.4439     1.4389    -4.4146 Cl    441 CCL4  -0.0812 
2308 CL      -0.4879     0.2110    -1.9726 Cl    441 CCL4  -0.0812 
2309 CL       1.7219    -0.9153    -3.3563 Cl    441 CCL4  -0.0812 
2310 CL       6.5122     9.1384    -4.1216 Cl    442 CCL4  -0.0812 
2311 C        7.1095     7.9360    -3.0150 C.3   442 CCL4   0.3246 
2312 CL       6.3514     6.3664    -3.4192 Cl    442 CCL4  -0.0812 
2313 CL       6.6478     8.3432    -1.3124 Cl    442 CCL4  -0.0812 
2314 CL       8.8732     7.7263    -3.0280 Cl    442 CCL4  -0.0812 
2315 CL      -3.7790     4.4715    -1.2069 Cl    443 CCL4  -0.0812 
2316 C       -2.2940     4.7589    -2.1501 C.3   443 CCL4   0.3246 
2317 CL      -2.6650     4.4247    -3.8355 Cl    443 CCL4  -0.0812 
2318 CL      -1.0915     3.6920    -1.5004 Cl    443 CCL4  -0.0812 
2319 CL      -1.8679     6.5261    -2.0442 Cl    443 CCL4  -0.0812 
2320 CL      -5.4771     4.1941    -7.9320 Cl    444 CCL4  -0.0812 
2321 C       -6.5723     3.2318    -6.9970 C.3   444 CCL4   0.3246 
2322 CL      -8.2587     3.5244    -7.4625 Cl    444 CCL4  -0.0812 
2323 CL      -6.4956     3.7927    -5.3623 Cl    444 CCL4  -0.0812 
2324 CL      -6.1546     1.5190    -7.1073 Cl    444 CCL4  -0.0812 
2325 CL      -2.2838    -1.1874     0.4062 Cl    445 CCL4  -0.0812 
2326 C       -3.5658    -0.0988     1.0350 C.3   445 CCL4   0.3246 
2327 CL      -3.7928    -0.6328     2.7452 Cl    445 CCL4  -0.0812 
2328 CL      -5.0135    -0.2233     0.0659 Cl    445 CCL4  -0.0812 
2329 CL      -3.0410     1.6043     1.0092 Cl    445 CCL4  -0.0812 
2330 CL       0.1702    12.4080   -13.5199 Cl    446 CCL4  -0.0812 
2331 C       -0.5202    11.2778   -12.3235 C.3   446 CCL4   0.3246 
2332 CL      -1.6562    10.1825   -13.3223 Cl    446 CCL4  -0.0812 
2333 CL      -1.4729    12.3266   -11.1725 Cl    446 CCL4  -0.0812 
2334 CL       0.6486    10.2088   -11.5591 Cl    446 CCL4  -0.0812 
2335 CL      -0.5261    16.4103    -6.1383 Cl    447 CCL4  -0.0812 
2336 C       -0.9142    16.0947    -7.8952 C.3   447 CCL4   0.3246 
2337 CL      -2.1132    14.6733    -7.9119 Cl    447 CCL4  -0.0812 
2338 CL       0.6290    15.5075    -8.6581 Cl    447 CCL4  -0.0812 
2339 CL      -1.5582    17.4760    -8.6449 Cl    447 CCL4  -0.0812 
2340 CL      -4.4399    15.1535   -10.7224 Cl    448 CCL4  -0.0812 
2341 C       -5.5645    14.3624    -9.6260 C.3   448 CCL4   0.3246 
2342 CL      -5.1654    12.6811    -9.3698 Cl    448 CCL4  -0.0812 
2343 CL      -7.2087    14.4848   -10.3725 Cl    448 CCL4  -0.0812 
2344 CL      -5.5734    15.1223    -8.0017 Cl    448 CCL4  -0.0812 
2345 CL       0.2876    15.3856   -15.0851 Cl    449 CCL4  -0.0812 
2346 C       -0.7039    16.2159   -13.8061 C.3   449 CCL4   0.3246 
2347 CL      -0.6261    15.5378   -12.2086 Cl    449 CCL4  -0.0812 
2348 CL      -2.4297    16.3112   -14.1889 Cl    449 CCL4  -0.0812 
2349 CL      -0.0939    17.9114   -13.7715 Cl    449 CCL4  -0.0812 
2350 CL      -5.3075    20.8198    -5.9451 Cl    450 CCL4  -0.0812 
2351 C       -4.7622    19.1287    -6.2369 C.3   450 CCL4   0.3246 
2352 CL      -5.7223    18.0299    -5.2596 Cl    450 CCL4  -0.0812 
2353 CL      -3.0975    18.8537    -5.8364 Cl    450 CCL4  -0.0812 
2354 CL      -4.9537    18.6962    -7.9151 Cl    450 CCL4  -0.0812 
2355 CL      -4.7473    10.5986   -14.9706 Cl    451 CCL4  -0.0812 
2356 C       -4.4866    12.3111   -15.0657 C.3   451 CCL4   0.3246 
2357 CL      -5.6086    13.1659   -16.0299 Cl    451 CCL4  -0.0812 
2358 CL      -2.7632    12.5087   -15.8370 Cl    451 CCL4  -0.0812 
2359 CL      -4.2478    12.9930   -13.4071 Cl    451 CCL4  -0.0812 
2360 CL       1.0585    13.2473    -5.6585 Cl    452 CCL4  -0.0812 
2361 C        1.7162    12.0341    -6.7835 C.3   452 CCL4   0.3246 
2362 CL       0.5738    11.6220    -8.0331 Cl    452 CCL4  -0.0812 
2363 CL       2.2105    10.6190    -5.9502 Cl    452 CCL4  -0.0812 
2364 CL       3.0559    12.7446    -7.6629 Cl    452 CCL4  -0.0812 
2365 CL       5.5800    15.1147    -7.1893 Cl    453 CCL4  -0.0812 
2366 C        5.0849    14.9115    -5.3849 C.3   453 CCL4   0.3246 
2367 CL       3.4074    15.6099    -5.0899 Cl    453 CCL4  -0.0812 
2368 CL       6.3113    15.8569    -4.4017 Cl    453 CCL4  -0.0812 
2369 CL       5.1798    13.2088    -4.9049 Cl    453 CCL4  -0.0812 
2370 CL      -3.4226    10.1307    -0.5773 Cl    454 CCL4  -0.0812 
2371 C       -4.9466     9.7211    -1.3566 C.3   454 CCL4   0.3246 
2372 CL      -6.3399    10.4658    -0.6341 Cl    454 CCL4  -0.0812 
2373 CL      -5.1050     7.9396    -1.3813 Cl    454 CCL4  -0.0812 
2374 CL      -4.8636    10.2210    -3.0171 Cl    454 CCL4  -0.0812 
2375 CL      -3.5306    15.3427    -4.1513 Cl    455 CCL4  -0.0812 
2376 C       -3.8891    13.5584    -4.1359 C.3   455 CCL4   0.3246 
2377 CL      -5.0362    12.9848    -5.3150 Cl    455 CCL4  -0.0812 
2378 CL      -4.6527    13.3247    -2.4842 Cl    455 CCL4  -0.0812 
2379 CL      -2.4015    12.5500    -4.1931 Cl    455 CCL4  -0.0812 
2380 CL       2.7965    21.0261    -4.6077 Cl    456 CCL4  -0.0812 
2381 C        2.9140    19.2655    -4.7571 C.3   456 CCL4   0.3246 
2382 CL       4.5233    18.7516    -4.3358 Cl    456 CCL4  -0.0812 
2383 CL       2.8334    18.8129    -6.4893 Cl    456 CCL4  -0.0812 
2384 CL       1.7546    18.4879    -3.7089 Cl    456 CCL4  -0.0812 
2385 CL      -6.9902    17.8610    -1.7306 Cl    457 CCL4  -0.0812 
2386 C       -6.4513    16.7882    -0.3264 C.3   457 CCL4   0.3246 
2387 CL      -7.2826    15.2452    -0.4107 Cl    457 CCL4  -0.0812 
2388 CL      -6.9360    17.5994     1.1493 Cl    457 CCL4  -0.0812 
2389 CL      -4.6350    16.5676    -0.5404 Cl    457 CCL4  -0.0812 
2390 CL      -8.5067    12.4374    -3.3555 Cl    458 CCL4  -0.0812 
2391 C       -8.5976    13.3000    -4.9127 C.3   458 CCL4   0.3246 
2392 CL      -7.7693    14.9409    -4.9166 Cl    458 CCL4  -0.0812 
2393 CL     -10.3247    13.8151    -5.0870 Cl    458 CCL4  -0.0812 
2394 CL      -8.0002    12.3342    -6.3133 Cl    458 CCL4  -0.0812 
2395 CL      -7.4659     8.9559    -4.5856 Cl    459 CCL4  -0.0812 
2396 C       -6.3821     8.3578    -5.8546 C.3   459 CCL4   0.3246 
2397 CL      -7.3285     7.0262    -6.5587 Cl    459 CCL4  -0.0812 
2398 CL      -5.0500     7.5058    -5.0412 Cl    459 CCL4  -0.0812 
2399 CL      -5.8744     9.6091    -7.0224 Cl    459 CCL4  -0.0812 
2400 CL       5.8561    12.4350    -0.4560 Cl    460 CCL4  -0.0812 
2401 C        5.9674    12.2521     1.2827 C.3   460 CCL4   0.3246 
2402 CL       7.6485    12.9323     1.7156 Cl    460 CCL4  -0.0812 
2403 CL       5.8598    10.4962     1.6748 Cl    460 CCL4  -0.0812 
2404 CL       4.7734    13.1877     2.1624 Cl    460 CCL4  -0.0812 
2405 CL       6.2955     4.7432   -12.1317 Cl    461 CCL4  -0.0812 
2406 C        5.7454     3.3712   -11.1739 C.3   461 CCL4   0.3246 
2407 CL       4.7589     3.9230    -9.8086 Cl    461 CCL4  -0.0812 
2408 CL       7.1752     2.5714   -10.5723 Cl    461 CCL4  -0.0812 
2409 CL       4.7086     2.3024   -12.2412 Cl    461 CCL4  -0.0812 
2410 CL       7.0948     4.1829   -15.9576 Cl    462 CCL4  -0.0812 
2411 C        7.9624     2.6982   -15.9025 C.3   462 CCL4   0.3246 
2412 CL       7.4433     1.4601   -17.1151 Cl    462 CCL4  -0.0812 
2413 CL       7.6074     1.8924   -14.2183 Cl    462 CCL4  -0.0812 
2414 CL       9.7578     2.8547   -15.9453 Cl    462 CCL4  -0.0812 
2415 CL       5.6108    -0.9035   -13.9292 Cl    463 CCL4  -0.0812 
2416 C        5.9850    -1.7218   -12.4142 C.3   463 CCL4   0.3246 
2417 CL       7.2812    -0.9047   -11.5623 Cl    463 CCL4  -0.0812 
2418 CL       6.5249    -3.4128   -12.7097 Cl    463 CCL4  -0.0812 
2419 CL       4.5007    -1.9264   -11.3320 Cl    463 CCL4  -0.0812 
2420 CL       7.4750    16.7485   -10.2852 Cl    464 CCL4  -0.0812 
2421 C        9.1148    17.1896   -10.7848 C.3   464 CCL4   0.3246 
2422 CL      10.0510    17.5527    -9.4095 Cl    464 CCL4  -0.0812 
2423 CL       9.0384    18.7144   -11.6785 Cl    464 CCL4  -0.0812 
2424 CL       9.7231    15.8507   -11.7434 Cl    464 CCL4  -0.0812 
2425 CL       4.8636    16.7176   -16.2758 Cl    465 CCL4  -0.0812 
2426 C        6.5480    16.9692   -15.8068 C.3   465 CCL4   0.3246 
2427 CL       6.8477    16.3488   -14.1890 Cl    465 CCL4  -0.0812 
2428 CL       6.6773    18.7932   -15.7987 Cl    465 CCL4  -0.0812 
2429 CL       7.5453    16.1572   -17.1342 Cl    465 CCL4  -0.0812 
2430 CL       9.8371    -4.0566   -15.6577 Cl    466 CCL4  -0.0812 
2431 C        9.9210    -2.5677   -14.7198 C.3   466 CCL4   0.3246 
2432 CL       9.9231    -2.7673   -13.0187 Cl    466 CCL4  -0.0812 
2433 CL       8.6358    -1.4550   -15.1927 Cl    466 CCL4  -0.0812 
2434 CL      11.3407    -1.5046   -15.2361 Cl    466 CCL4  -0.0812 
2435 CL       9.5270     4.2778    -6.7334 Cl    467 CCL4  -0.0812 
2436 C        8.2687     5.3685    -7.3801 C.3   467 CCL4   0.3246 
2437 CL       6.5624     4.6646    -6.8519 Cl    467 CCL4  -0.0812 
2438 CL       8.2891     5.4404    -9.1516 Cl    467 CCL4  -0.0812 
2439 CL       8.1974     6.9740    -6.5957 Cl    467 CCL4  -0.0812 
2440 CL       5.5410     8.4912    -8.3155 Cl    468 CCL4  -0.0812 
2441 C        4.8631     8.8408    -9.8788 C.3   468 CCL4   0.3246 
2442 CL       4.0447     7.3434   -10.3103 Cl    468 CCL4  -0.0812 
2443 CL       5.9974     9.2522   -11.2120 Cl    468 CCL4  -0.0812 
2444 CL       3.6230    10.1240    -9.8511 Cl    468 CCL4  -0.0812 
2445 CL       7.8925     1.3206    -5.8410 Cl    469 CCL4  -0.0812 
2446 C        9.3714     0.6370    -6.5305 C.3   469 CCL4   0.3246 
2447 CL       9.5860     1.3997    -8.1695 Cl    469 CCL4  -0.0812 
2448 CL       9.2669    -1.1146    -6.6417 Cl    469 CCL4  -0.0812 
2449 CL      10.7832     1.0246    -5.5456 Cl    469 CCL4  -0.0812 
2450 CL       6.1111    21.5621    -7.0340 Cl    470 CCL4  -0.0812 
2451 C        7.3813    20.3169    -7.1847 C.3   470 CCL4   0.3246 
2452 CL       8.3631    20.3118    -5.6866 Cl    470 CCL4  -0.0812 
2453 CL       8.2356    20.7024    -8.7621 Cl    470 CCL4  -0.0812 
2454 CL       6.6650    18.6810    -7.2752 Cl    470 CCL4  -0.0812 
2455 CL       5.9736    18.2782    -0.8705 Cl    471 CCL4  -0.0812 
2456 C        7.6361    17.6812    -1.0374 C.3   471 CCL4   0.3246 
2457 CL       8.2174    18.3388    -2.6201 Cl    471 CCL4  -0.0812 
2458 CL       7.7624    15.9524    -0.8790 Cl    471 CCL4  -0.0812 
2459 CL       8.5923    18.4437     0.3197 Cl    471 CCL4  -0.0812 
2460 CL       9.7222     3.1600     1.3934 Cl    472 CCL4  -0.0812 
2461 C        8.6923     3.9354     0.1384 C.3   472 CCL4   0.3246 
2462 CL       7.6420     2.7048    -0.5614 Cl    472 CCL4  -0.0812 
2463 CL       9.6469     4.7381    -1.1104 Cl    472 CCL4  -0.0812 
2464 CL       7.6616     5.1321     1.0922 Cl    472 CCL4  -0.0812 
2465 CL       5.1215    -0.6671    -1.8709 Cl    473 CCL4  -0.0812 
2466 C        6.2359    -1.3007    -3.1733 C.3   473 CCL4   0.3246 
2467 CL       6.4424    -3.0332    -2.9693 Cl    473 CCL4  -0.0812 
2468 CL       7.6812    -0.3980    -2.8108 Cl    473 CCL4  -0.0812 
2469 CL       5.5799    -0.8010    -4.7359 Cl    473 CCL4  -0.0812 
2470 CL       7.6776    -0.5815     1.5539 Cl    474 CCL4  -0.0812 
2471 C        8.3461    -2.2391     1.2986 C.3   474 CCL4   0.3246 
2472 CL       9.9187    -2.1484     0.5507 Cl    474 CCL4  -0.0812 
2473 CL       7.2881    -3.1885     0.2273 Cl    474 CCL4  -0.0812 
2474 CL       8.6143    -2.9345     2.9571 Cl    474 CCL4  -0.0812 
2475 CL      11.2646    11.9023    -3.1541 Cl    475 CCL4  -0.0812 
2476 C        9.9177    12.2445    -2.1224 C.3   475 CCL4   0.3246 
2477 CL       8.5871    12.9557    -3.0489 Cl    475 CCL4  -0.0812 
2478 CL      10.4233    13.6796    -1.1879 Cl    475 CCL4  -0.0812 
2479 CL       9.2279    10.9044    -1.0897 Cl    475 CCL4  -0.0812 
2480 CL       5.9515    16.0397     4.3645 Cl    476 CCL4  -0.0812 
2481 C        4.9225    17.2959     3.7702 C.3   476 CCL4   0.3246 
2482 CL       5.9691    18.3150     2.7509 Cl    476 CCL4  -0.0812 
2483 CL       4.1053    18.1480     5.1849 Cl    476 CCL4  -0.0812 
2484 CL       3.5677    16.6155     2.7855 Cl    476 CCL4  -0.0812 
2485 CL       4.5195    10.1774    23.2326 Cl    477 CCL4  -0.0812 
2486 C        4.0942    11.9753    22.8613 C.3   477 CCL4   0.3246 
2487 CL       5.0040    13.0919    23.8723 Cl    477 CCL4  -0.0812 
2488 CL       2.3598    12.1961    23.2800 Cl    477 CCL4  -0.0812 
2489 CL       4.4905    12.3302    21.1962 Cl    477 CCL4  -0.0812 
2490 CL       9.1414    12.9862    -8.8192 Cl    478 CCL4  -0.0812 
2491 C        8.1238    11.7241    -8.0276 C.3   478 CCL4   0.3246 
2492 CL       8.4737    11.6292    -6.2699 Cl    478 CCL4  -0.0812 
2493 CL       8.4394    10.1238    -8.7112 Cl    478 CCL4  -0.0812 
2494 CL       6.3599    12.0263    -8.3646 Cl    478 CCL4  -0.0812 
2495 CL       3.4113    14.9346   -13.4370 Cl    479 CCL4  -0.0812 
2496 C        3.8437    13.6689   -12.2943 C.3   479 CCL4   0.3246 
2497 CL       2.5419    13.6970   -11.1520 Cl    479 CCL4  -0.0812 
2498 CL       5.4152    14.0314   -11.3978 Cl    479 CCL4  -0.0812 
2499 CL       4.1029    12.1521   -13.0694 Cl    479 CCL4  -0.0812 
2500 CL       3.7127    18.3553   -12.2479 Cl    480 CCL4  -0.0812 
2501 C        3.3379    18.5622   -10.5655 C.3   480 CCL4   0.3246 
2502 CL       4.2814    19.9861   -10.0515 Cl    480 CCL4  -0.0812 
2503 CL       3.8450    17.1280    -9.6901 Cl    480 CCL4  -0.0812 
2504 CL       1.6576    18.8661   -10.1878 Cl    480 CCL4  -0.0812 
2505 CL      -8.7018     9.2396    11.7745 Cl    481 CCL4  -0.0812 
2506 C       -8.9361    10.8811    12.4387 C.3   481 CCL4   0.3246 
2507 CL     -10.4309    11.5080    11.7305 Cl    481 CCL4  -0.0812 
2508 CL      -7.5132    11.9376    12.2162 Cl    481 CCL4  -0.0812 
2509 CL      -9.1478    10.6703    14.2021 Cl    481 CCL4  -0.0812 
2510 CL       2.9550     7.2854     8.6337 Cl    482 CCL4  -0.0812 
2511 C        3.4564     7.2852    10.2542 C.3   482 CCL4   0.3246 
2512 CL       3.1199     5.7896    11.0389 Cl    482 CCL4  -0.0812 
2513 CL       2.8982     8.6406    11.1403 Cl    482 CCL4  -0.0812 
2514 CL       5.2484     7.4117    10.2319 Cl    482 CCL4  -0.0812 
2515 CL       0.8398    -1.8842    14.4214 Cl    483 CCL4  -0.0812 
2516 C        0.2420    -0.8663    13.0262 C.3   483 CCL4   0.3246 
2517 CL      -0.9966    -1.6451    11.9436 Cl    483 CCL4  -0.0812 
2518 CL       1.6195    -0.3055    12.0271 Cl    483 CCL4  -0.0812 
2519 CL      -0.4889     0.6724    13.7667 Cl    483 CCL4  -0.0812 
2520 CL      -4.8919     9.5919    13.6682 Cl    484 CCL4  -0.0812 
2521 C       -4.6056     7.8370    13.7954 C.3   484 CCL4   0.3246 
2522 CL      -4.8504     7.3218    15.4862 Cl    484 CCL4  -0.0812 
2523 CL      -3.0665     7.2376    13.2319 Cl    484 CCL4  -0.0812 
2524 CL      -5.8597     7.0238    12.8275 Cl    484 CCL4  -0.0812 
2525 CL      -3.4425    18.4740    13.8506 Cl    485 CCL4  -0.0812 
2526 C       -2.9083    20.0354    13.1652 C.3   485 CCL4   0.3246 
2527 CL      -3.8365    21.4504    13.6989 Cl    485 CCL4  -0.0812 
2528 CL      -2.7617    20.0456    11.4177 Cl    485 CCL4  -0.0812 
2529 CL      -1.2748    20.3011    13.8223 Cl    485 CCL4  -0.0812 
2530 CL       0.5539     6.6743    13.5009 Cl    486 CCL4  -0.0812 
2531 C        0.0454     4.9470    13.7171 C.3   486 CCL4   0.3246 
2532 CL       1.4724     4.0036    14.1813 Cl    486 CCL4  -0.0812 
2533 CL      -0.6157     4.2643    12.2647 Cl    486 CCL4  -0.0812 
2534 CL      -1.0503     4.8316    15.1680 Cl    486 CCL4  -0.0812 
2535 CL      -4.5517    -1.2034     9.6044 Cl    487 CCL4  -0.0812 
2536 C       -6.3331    -1.7293     9.7536 C.3   487 CCL4   0.3246 
2537 CL      -6.3485    -3.4224     9.9599 Cl    487 CCL4  -0.0812 
2538 CL      -7.3024    -1.2976     8.2659 Cl    487 CCL4  -0.0812 
2539 CL      -6.9945    -0.7994    11.1765 Cl    487 CCL4  -0.0812 
2540 CL      -0.3624    -1.2923    17.5081 Cl    488 CCL4  -0.0812 
2541 C       -0.8633    -2.9282    17.8635 C.3   488 CCL4   0.3246 
2542 CL       0.3692    -4.0587    17.3204 Cl    488 CCL4  -0.0812 
2543 CL      -2.3007    -3.3374    16.9093 Cl    488 CCL4  -0.0812 
2544 CL      -1.1928    -3.0911    19.5500 Cl    488 CCL4  -0.0812 
2545 CL      -4.0396    -0.5690    13.4463 Cl    489 CCL4  -0.0812 
2546 C       -4.7835    -0.0784    14.9975 C.3   489 CCL4   0.3246 
2547 CL      -3.5596     0.4103    16.0703 Cl    489 CCL4  -0.0812 
2548 CL      -5.6604    -1.4919    15.6135 Cl    489 CCL4  -0.0812 
2549 CL      -5.9740     1.2643    14.6927 Cl    489 CCL4  -0.0812 
2550 CL       4.0843    21.2063     9.5930 Cl    490 CCL4  -0.0812 
2551 C        2.2855    20.7908     9.5887 C.3   490 CCL4   0.3246 
2552 CL       2.0751    19.0914     8.9809 Cl    490 CCL4  -0.0812 
2553 CL       1.4424    21.9124     8.5376 Cl    490 CCL4  -0.0812 
2554 CL       1.6145    21.0738    11.2533 Cl    490 CCL4  -0.0812 
2555 CL      -3.9989    18.8650     8.5544 Cl    491 CCL4  -0.0812 
2556 C       -2.4773    19.1541     7.6965 C.3   491 CCL4   0.3246 
2557 CL      -2.1411    20.9260     8.1356 Cl    491 CCL4  -0.0812 
2558 CL      -2.7117    19.0863     5.9461 Cl    491 CCL4  -0.0812 
2559 CL      -1.1170    18.0682     8.0796 Cl    491 CCL4  -0.0812 
2560 CL       5.0108     4.8723     3.9600 Cl    492 CCL4  -0.0812 
2561 C        6.0115     3.5462     4.7137 C.3   492 CCL4   0.3246 
2562 CL       6.4287     2.4675     3.3700 Cl    492 CCL4  -0.0812 
2563 CL       5.0753     2.7495     5.9512 Cl    492 CCL4  -0.0812 
2564 CL       7.4391     4.2752     5.4571 Cl    492 CCL4  -0.0812 
2565 CL       2.1849     4.1474     7.7156 Cl    493 CCL4  -0.0812 
2566 C        1.9374     2.5767     8.4813 C.3   493 CCL4   0.3246 
2567 CL       0.5586     2.6129     9.5648 Cl    493 CCL4  -0.0812 
2568 CL       3.3944     2.0907     9.4265 Cl    493 CCL4  -0.0812 
2569 CL       1.7147     1.2966     7.2023 Cl    493 CCL4  -0.0812 
2570 CL      -3.1667     1.6928    10.6840 Cl    494 CCL4  -0.0812 
2571 C       -4.1809     2.9321    11.4079 C.3   494 CCL4   0.3246 
2572 CL      -3.8515     4.4572    10.5643 Cl    494 CCL4  -0.0812 
2573 CL      -3.5600     3.1761    13.1260 Cl    494 CCL4  -0.0812 
2574 CL      -5.8563     2.4056    11.3806 Cl    494 CCL4  -0.0812 
2575 CL      -7.0543    20.7983    13.0528 Cl    495 CCL4  -0.0812 
2576 C       -8.4113    20.0355    13.9422 C.3   495 CCL4   0.3246 
2577 CL      -9.9301    20.6181    13.1799 Cl    495 CCL4  -0.0812 
2578 CL      -8.4022    20.6269    15.5928 Cl    495 CCL4  -0.0812 
2579 CL      -8.1429    18.2981    13.8471 Cl    495 CCL4  -0.0812 
2580 CL      -5.4037    21.3843     6.2759 Cl    496 CCL4  -0.0812 
2581 C       -6.1310    20.6169     4.7744 C.3   496 CCL4   0.3246 
2582 CL      -7.4342    21.6263     4.0854 Cl    496 CCL4  -0.0812 
2583 CL      -6.3161    18.8818     4.9550 Cl    496 CCL4  -0.0812 
2584 CL      -4.6587    20.7363     3.6313 Cl    496 CCL4  -0.0812 
2585 CL      -4.5545     1.1643    22.0684 Cl    497 CCL4  -0.0812 
2586 C       -4.0823    -0.3017    21.0786 C.3   497 CCL4   0.3246 
2587 CL      -5.6263    -0.8183    20.3258 Cl    497 CCL4  -0.0812 
2588 CL      -3.3048    -1.6219    22.0576 Cl    497 CCL4  -0.0812 
2589 CL      -3.0029     0.2833    19.8214 Cl    497 CCL4  -0.0812 
2590 CL       1.2047     4.7260    18.2279 Cl    498 CCL4  -0.0812 
2591 C        2.1056     5.7988    19.3017 C.3   498 CCL4   0.3246 
2592 CL       3.2655     6.8861    18.4932 Cl    498 CCL4  -0.0812 
2593 CL       3.0776     4.7141    20.5496 Cl    498 CCL4  -0.0812 
2594 CL       0.9996     6.7643    20.2813 Cl    498 CCL4  -0.0812 
2595 CL       0.1275     8.0457    17.0463 Cl    499 CCL4  -0.0812 
2596 C       -1.4465     8.3233    17.9158 C.3   499 CCL4   0.3246 
2597 CL      -1.1733     9.2713    19.3482 Cl    499 CCL4  -0.0812 
2598 CL      -2.1478     6.7061    18.3613 Cl    499 CCL4  -0.0812 
2599 CL      -2.4764     9.2053    16.8641 Cl    499 CCL4  -0.0812 
2600 CL       5.1361     0.1997    16.6093 Cl    500 CCL4  -0.0812 
2601 C        3.5977     0.6241    17.1979 C.3   500 CCL4   0.3246 
2602 CL       2.5159     0.9429    15.7553 Cl    500 CCL4  -0.0812 
2603 CL       3.6874     2.0740    18.1355 Cl    500 CCL4  -0.0812 
2604 CL       2.8629    -0.6589    18.1252 Cl    500 CCL4  -0.0812 
2605 CL      -5.4771     4.1941    17.0680 Cl    501 CCL4  -0.0812 
2606 C       -6.5723     3.2318    18.0030 C.3   501 CCL4   0.3246 
2607 CL      -8.2587     3.5244    17.5375 Cl    501 CCL4  -0.0812 
2608 CL      -6.4956     3.7927    19.6377 Cl    501 CCL4  -0.0812 
2609 CL      -6.1546     1.5190    17.8927 Cl    501 CCL4  -0.0812 
2610 CL       0.1702    12.4080    11.4801 Cl    502 CCL4  -0.0812 
2611 C       -0.5202    11.2778    12.6765 C.3   502 CCL4   0.3246 
2612 CL      -1.6562    10.1825    11.6777 Cl    502 CCL4  -0.0812 
2613 CL      -1.4729    12.3266    13.8275 Cl    502 CCL4  -0.0812 
2614 CL       0.6486    10.2088    13.4409 Cl    502 CCL4  -0.0812 
2615 CL      -0.5261    16.4103    18.8617 Cl    503 CCL4  -0.0812 
2616 C       -0.9142    16.0947    17.1048 C.3   503 CCL4   0.3246 
2617 CL      -2.1132    14.6733    17.0881 Cl    503 CCL4  -0.0812 
2618 CL       0.6290    15.5075    16.3419 Cl    503 CCL4  -0.0812 
2619 CL      -1.5582    17.4760    16.3551 Cl    503 CCL4  -0.0812 
2620 CL      -4.4399    15.1535    14.2776 Cl    504 CCL4  -0.0812 
2621 C       -5.5645    14.3624    15.3740 C.3   504 CCL4   0.3246 
2622 CL      -5.1654    12.6811    15.6302 Cl    504 CCL4  -0.0812 
2623 CL      -7.2087    14.4848    14.6275 Cl    504 CCL4  -0.0812 
2624 CL      -5.5734    15.1223    16.9983 Cl    504 CCL4  -0.0812 
2625 CL       0.2876    15.3856     9.9149 Cl    505 CCL4  -0.0812 
2626 C       -0.7039    16.2159    11.1939 C.3   505 CCL4   0.3246 
2627 CL      -0.6261    15.5378    12.7914 Cl    505 CCL4  -0.0812 
2628 CL      -2.4297    16.3112    10.8111 Cl    505 CCL4  -0.0812 
2629 CL      -0.0939    17.9114    11.2285 Cl    505 CCL4  -0.0812 
2630 CL       1.7382    13.8382     4.5028 Cl    506 CCL4  -0.0812 
2631 C        1.1009    14.9267     5.7915 C.3   506 CCL4   0.3246 
2632 CL      -0.2215    14.2049     6.7741 Cl    506 CCL4  -0.0812 
2633 CL       0.5550    16.3776     4.9643 Cl    506 CCL4  -0.0812 
2634 CL       2.4572    15.4579     6.7433 Cl    506 CCL4  -0.0812 
2635 CL      -4.0766    15.9082     6.5325 Cl    507 CCL4  -0.0812 
2636 C       -4.1311    15.3320     4.8883 C.3   507 CCL4   0.3246 
2637 CL      -4.0244    16.6419     3.6966 Cl    507 CCL4  -0.0812 
2638 CL      -5.6731    14.5814     4.7447 Cl    507 CCL4  -0.0812 
2639 CL      -2.7385    14.3002     4.5542 Cl    507 CCL4  -0.0812 
2640 CL      -7.1440    17.1414     8.2767 Cl    508 CCL4  -0.0812 
2641 C       -7.5464    17.0139    10.0856 C.3   508 CCL4   0.3246 
2642 CL      -8.3567    15.4002    10.2721 Cl    508 CCL4  -0.0812 
2643 CL      -8.8704    18.1736    10.4240 Cl    508 CCL4  -0.0812 
2644 CL      -6.1080    17.0268    11.0425 Cl    508 CCL4  -0.0812 
2645 CL      -4.7473    10.5986    10.0294 Cl    509 CCL4  -0.0812 
2646 C       -4.4866    12.3111     9.9343 C.3   509 CCL4   0.3246 
2647 CL      -5.6086    13.1659     8.9701 Cl    509 CCL4  -0.0812 
2648 CL      -2.7632    12.5087     9.1630 Cl    509 CCL4  -0.0812 
2649 CL      -4.2478    12.9930    11.5929 Cl    509 CCL4  -0.0812 
2650 CL      -8.6094    11.3307     8.4612 Cl    510 CCL4  -0.0812 
2651 C       -8.9407    12.0991     6.8880 C.3   510 CCL4   0.3246 
2652 CL     -10.5798    11.8984     6.3558 Cl    510 CCL4  -0.0812 
2653 CL      -7.9395    11.4350     5.6348 Cl    510 CCL4  -0.0812 
2654 CL      -8.7155    13.8264     7.0398 Cl    510 CCL4  -0.0812 
2655 CL       3.9646     8.5685     5.0938 Cl    511 CCL4  -0.0812 
2656 C        2.2630     8.6266     4.8084 C.3   511 CCL4   0.3246 
2657 CL       1.5571     7.1634     5.2673 Cl    511 CCL4  -0.0812 
2658 CL       1.9272     9.0771     3.0685 Cl    511 CCL4  -0.0812 
2659 CL       1.6083     9.9949     5.8253 Cl    511 CCL4  -0.0812 
2660 CL       1.0585    13.2473    19.3415 Cl    512 CCL4  -0.0812 
2661 C        1.7162    12.0341    18.2165 C.3   512 CCL4   0.3246 
2662 CL       0.5738    11.6220    16.9669 Cl    512 CCL4  -0.0812 
2663 CL       2.2105    10.6190    19.0498 Cl    512 CCL4  -0.0812 
2664 CL       3.0559    12.7446    17.3371 Cl    512 CCL4  -0.0812 
2665 CL       2.7965    21.0261    20.3923 Cl    513 CCL4  -0.0812 
2666 C        2.9140    19.2655    20.2429 C.3   513 CCL4   0.3246 
2667 CL       4.5233    18.7516    20.6642 Cl    513 CCL4  -0.0812 
2668 CL       2.8334    18.8129    18.5107 Cl    513 CCL4  -0.0812 
2669 CL       1.7546    18.4879    21.2911 Cl    513 CCL4  -0.0812 
2670 CL      -8.5067    12.4374    21.6445 Cl    514 CCL4  -0.0812 
2671 C       -8.5976    13.3000    20.0873 C.3   514 CCL4   0.3246 
2672 CL      -7.7693    14.9409    20.0834 Cl    514 CCL4  -0.0812 
2673 CL     -10.3247    13.8151    19.9130 Cl    514 CCL4  -0.0812 
2674 CL      -8.0002    12.3342    18.6867 Cl    514 CCL4  -0.0812 
2675 CL      -7.4659     8.9559    20.4144 Cl    515 CCL4  -0.0812 
2676 C       -6.3821     8.3578    19.1454 C.3   515 CCL4   0.3246 
2677 CL      -7.3285     7.0262    18.4413 Cl    515 CCL4  -0.0812 
2678 CL      -5.0500     7.5058    19.9588 Cl    515 CCL4  -0.0812 
2679 CL      -5.8744     9.6091    17.9776 Cl    515 CCL4  -0.0812 
2680 CL       6.2955     4.7432    12.8683 Cl    516 CCL4  -0.0812 
2681 C        5.7454     3.3712    13.8261 C.3   516 CCL4   0.3246 
2682 CL       4.7589     3.9230    15.1914 Cl    516 CCL4  -0.0812 
2683 CL       7.1752     2.5714    14.4277 Cl    516 CCL4  -0.0812 
2684 CL       4.7086     2.3024    12.7588 Cl    516 CCL4  -0.0812 
2685 CL      10.1359     1.5159    12.8206 Cl    517 CCL4  -0.0812 
2686 C       10.8590     3.0986    12.8583 C.3   517 CCL4   0.3246 
2687 CL      11.1914     3.4651    14.6460 Cl    517 CCL4  -0.0812 
2688 CL       9.7214     4.3638    12.3337 Cl    517 CCL4  -0.0812 
2689 CL      12.3433     3.2933    11.9292 Cl    517 CCL4  -0.0812 
2690 CL       4.6081    -3.5672     5.7605 Cl    518 CCL4  -0.0812 
2691 C        5.4992    -2.0263     6.1038 C.3   518 CCL4   0.3246 
2692 CL       7.0161    -2.3944     7.0704 Cl    518 CCL4  -0.0812 
2693 CL       4.4125    -0.9355     7.0133 Cl    518 CCL4  -0.0812 
2694 CL       5.9375    -1.2479     4.5662 Cl    518 CCL4  -0.0812 
2695 CL       9.2374    16.7480     4.5409 Cl    519 CCL4  -0.0812 
2696 C        9.7857    18.3359     4.9409 C.3   519 CCL4   0.3246 
2697 CL      10.1625    19.3000     3.5650 Cl    519 CCL4  -0.0812 
2698 CL      11.1067    18.2953     6.0694 Cl    519 CCL4  -0.0812 
2699 CL       8.4838    19.2312     5.7742 Cl    519 CCL4  -0.0812 
2700 CL       7.0948     4.1829     9.0424 Cl    520 CCL4  -0.0812 
2701 C        7.9624     2.6982     9.0975 C.3   520 CCL4   0.3246 
2702 CL       7.4433     1.4601     7.8849 Cl    520 CCL4  -0.0812 
2703 CL       7.6074     1.8924    10.7817 Cl    520 CCL4  -0.0812 
2704 CL       9.7578     2.8547     9.0547 Cl    520 CCL4  -0.0812 
2705 CL       5.6108    -0.9035    11.0708 Cl    521 CCL4  -0.0812 
2706 C        5.9850    -1.7218    12.5858 C.3   521 CCL4   0.3246 
2707 CL       7.2812    -0.9047    13.4377 Cl    521 CCL4  -0.0812 
2708 CL       6.5249    -3.4128    12.2903 Cl    521 CCL4  -0.0812 
2709 CL       4.5007    -1.9264    13.6680 Cl    521 CCL4  -0.0812 
2710 CL       7.4750    16.7485    14.7148 Cl    522 CCL4  -0.0812 
2711 C        9.1148    17.1896    14.2152 C.3   522 CCL4   0.3246 
2712 CL      10.0510    17.5527    15.5905 Cl    522 CCL4  -0.0812 
2713 CL       9.0384    18.7144    13.3215 Cl    522 CCL4  -0.0812 
2714 CL       9.7231    15.8507    13.2566 Cl    522 CCL4  -0.0812 
2715 CL       9.4329     8.0041     6.0993 Cl    523 CCL4  -0.0812 
2716 C        7.7481     8.3107     5.6557 C.3   523 CCL4   0.3246 
2717 CL       6.7201     7.4968     6.8449 Cl    523 CCL4  -0.0812 
2718 CL       7.3320     7.7130     4.0133 Cl    523 CCL4  -0.0812 
2719 CL       7.2153    10.0033     5.7545 Cl    523 CCL4  -0.0812 
2720 CL       4.8636    16.7176     8.7242 Cl    524 CCL4  -0.0812 
2721 C        6.5480    16.9692     9.1932 C.3   524 CCL4   0.3246 
2722 CL       6.8477    16.3488    10.8110 Cl    524 CCL4  -0.0812 
2723 CL       6.6773    18.7932     9.2013 Cl    524 CCL4  -0.0812 
2724 CL       7.5453    16.1572     7.8658 Cl    524 CCL4  -0.0812 
2725 CL       9.8371    -4.0566     9.3423 Cl    525 CCL4  -0.0812 
2726 C        9.9210    -2.5677    10.2802 C.3   525 CCL4   0.3246 
2727 CL       9.9231    -2.7673    11.9813 Cl    525 CCL4  -0.0812 
2728 CL       8.6358    -1.4550     9.8073 Cl    525 CCL4  -0.0812 
2729 CL      11.3407    -1.5046     9.7639 Cl    525 CCL4  -0.0812 
2730 CL       9.5270     4.2778    18.2666 Cl    526 CCL4  -0.0812 
2731 C        8.2687     5.3685    17.6199 C.3   526 CCL4   0.3246 
2732 CL       6.5624     4.6646    18.1481 Cl    526 CCL4  -0.0812 
2733 CL       8.2891     5.4404    15.8484 Cl    526 CCL4  -0.0812 
2734 CL       8.1974     6.9740    18.4043 Cl    526 CCL4  -0.0812 
2735 CL       5.5410     8.4912    16.6845 Cl    527 CCL4  -0.0812 
2736 C        4.8631     8.8408    15.1212 C.3   527 CCL4   0.3246 
2737 CL       4.0447     7.3434    14.6897 Cl    527 CCL4  -0.0812 
2738 CL       5.9974     9.2522    13.7880 Cl    527 CCL4  -0.0812 
2739 CL       3.6230    10.1240    15.1489 Cl    527 CCL4  -0.0812 
2740 CL       7.8925     1.3206    19.1590 Cl    528 CCL4  -0.0812 
2741 C        9.3714     0.6370    18.4695 C.3   528 CCL4   0.3246 
2742 CL       9.5860     1.3997    16.8305 Cl    528 CCL4  -0.0812 
2743 CL       9.2669    -1.1146    18.3583 Cl    528 CCL4  -0.0812 
2744 CL      10.7832     1.0246    19.4544 Cl    528 CCL4  -0.0812 
2745 CL       6.1111    21.5621    17.9660 Cl    529 CCL4  -0.0812 
2746 C        7.3813    20.3169    17.8153 C.3   529 CCL4   0.3246 
2747 CL       8.3631    20.3118    19.3134 Cl    529 CCL4  -0.0812 
2748 CL       8.2356    20.7024    16.2379 Cl    529 CCL4  -0.0812 
2749 CL       6.6650    18.6810    17.7248 Cl    529 CCL4  -0.0812 
2750 CL       4.5195    10.1774     8.2326 Cl    530 CCL4  -0.0812 
2751 C        4.0942    11.9753     7.8613 C.3   530 CCL4   0.3246 
2752 CL       5.0040    13.0919     8.8723 Cl    530 CCL4  -0.0812 
2753 CL       2.3598    12.1961     8.2800 Cl    530 CCL4  -0.0812 
2754 CL       4.4905    12.3302     6.1962 Cl    530 CCL4  -0.0812 
2755 CL       9.1414    12.9862    16.1808 Cl    531 CCL4  -0.0812 
2756 C        8.1238    11.7241    16.9724 C.3   531 CCL4   0.3246 
2757 CL       8.4737    11.6292    18.7301 Cl    531 CCL4  -0.0812 
2758 CL       8.4394    10.1238    16.2888 Cl    531 CCL4  -0.0812 
2759 CL       6.3599    12.0263    16.6354 Cl    531 CCL4  -0.0812 
2760 CL       3.4113    14.9346    11.5630 Cl    532 CCL4  -0.0812 
2761 C        3.8437    13.6689    12.7057 C.3   532 CCL4   0.3246 
2762 CL       2.5419    13.6970    13.8480 Cl    532 CCL4  -0.0812 
2763 CL       5.4152    14.0314    13.6022 Cl    532 CCL4  -0.0812 
2764 CL       4.1029    12.1521    11.9306 Cl    532 CCL4  -0.0812 
2765 CL       3.7127    18.3553    12.7521 Cl    533 CCL4  -0.0812 
2766 C        3.3379    18.5622    14.4345 C.3   533 CCL4   0.3246 
2767 CL       4.2814    19.9861    14.9485 Cl    533 CCL4  -0.0812 
2768 CL       3.8450    17.1280    15.3099 Cl    533 CCL4  -0.0812 
2769 CL       1.6576    18.8661    14.8122 Cl    533 CCL4  -0.0812 
2770 CL       0.8398    23.1158   -10.5786 Cl    534 CCL4  -0.0812 
2771 C        0.2420    24.1337   -11.9738 C.3   534 CCL4   0.3246 
2772 CL      -0.9966    23.3549   -13.0564 Cl    534 CCL4  -0.0812 
2773 CL       1.6195    24.6945   -12.9729 Cl    534 CCL4  -0.0812 
2774 CL      -0.4889    25.6724   -11.2333 Cl    534 CCL4  -0.0812 
2775 CL      -1.1200    21.6845     3.2129 Cl    535 CCL4  -0.0812 
2776 C        0.0625    22.0927     4.5053 C.3   535 CCL4   0.3246 
2777 CL       0.5306    20.5419     5.1544 Cl    535 CCL4  -0.0812 
2778 CL      -0.8935    22.9694     5.7265 Cl    535 CCL4  -0.0812 
2779 CL       1.4165    22.9904     3.9416 Cl    535 CCL4  -0.0812 
2780 CL       2.2129    26.7440     3.6817 Cl    536 CCL4  -0.0812 
2781 C        0.5410    27.3413     3.5548 C.3   536 CCL4   0.3246 
2782 CL       0.1852    27.5933     1.7612 Cl    536 CCL4  -0.0812 
2783 CL       0.2115    28.8649     4.3945 Cl    536 CCL4  -0.0812 
2784 CL      -0.6928    26.1183     3.9797 Cl    536 CCL4  -0.0812 
2785 CL       0.5539    31.6743   -11.4991 Cl    537 CCL4  -0.0812 
2786 C        0.0454    29.9470   -11.2829 C.3   537 CCL4   0.3246 
2787 CL       1.4724    29.0036   -10.8187 Cl    537 CCL4  -0.0812 
2788 CL      -0.6157    29.2643   -12.7353 Cl    537 CCL4  -0.0812 
2789 CL      -1.0503    29.8316    -9.8320 Cl    537 CCL4  -0.0812 
2790 CL      -4.5517    23.7966   -15.3956 Cl    538 CCL4  -0.0812 
2791 C       -6.3331    23.2707   -15.2464 C.3   538 CCL4   0.3246 
2792 CL      -6.3485    21.5776   -15.0401 Cl    538 CCL4  -0.0812 
2793 CL      -7.3024    23.7024   -16.7341 Cl    538 CCL4  -0.0812 
2794 CL      -6.9945    24.2006   -13.8235 Cl    538 CCL4  -0.0812 
2795 CL      -0.3624    23.7077    -7.4919 Cl    539 CCL4  -0.0812 
2796 C       -0.8633    22.0718    -7.1365 C.3   539 CCL4   0.3246 
2797 CL       0.3692    20.9413    -7.6796 Cl    539 CCL4  -0.0812 
2798 CL      -2.3007    21.6626    -8.0907 Cl    539 CCL4  -0.0812 
2799 CL      -1.1928    21.9089    -5.4500 Cl    539 CCL4  -0.0812 
2800 CL      -4.0396    24.4310   -11.5537 Cl    540 CCL4  -0.0812 
2801 C       -4.7835    24.9216   -10.0025 C.3   540 CCL4   0.3246 
2802 CL      -3.5596    25.4103    -8.9297 Cl    540 CCL4  -0.0812 
2803 CL      -5.6604    23.5081    -9.3865 Cl    540 CCL4  -0.0812 
2804 CL      -5.9740    26.2643   -10.3073 Cl    540 CCL4  -0.0812 
2805 CL       2.1849    29.1474    22.7156 Cl    541 CCL4  -0.0812 
2806 C        1.9374    27.5767    23.4813 C.3   541 CCL4   0.3246 
2807 CL       0.5586    27.6129    24.5648 Cl    541 CCL4  -0.0812 
2808 CL       3.3944    27.0907    24.4265 Cl    541 CCL4  -0.0812 
2809 CL       1.7147    26.2966    22.2023 Cl    541 CCL4  -0.0812 
2810 CL      -3.1667    26.6928   -14.3160 Cl    542 CCL4  -0.0812 
2811 C       -4.1809    27.9321   -13.5921 C.3   542 CCL4   0.3246 
2812 CL      -3.8515    29.4572   -14.4357 Cl    542 CCL4  -0.0812 
2813 CL      -3.5600    28.1761   -11.8740 Cl    542 CCL4  -0.0812 
2814 CL      -5.8563    27.4056   -13.6194 Cl    542 CCL4  -0.0812 
2815 CL      -4.5545    26.1643    -2.9316 Cl    543 CCL4  -0.0812 
2816 C       -4.0823    24.6983    -3.9214 C.3   543 CCL4   0.3246 
2817 CL      -5.6263    24.1817    -4.6742 Cl    543 CCL4  -0.0812 
2818 CL      -3.3048    23.3781    -2.9424 Cl    543 CCL4  -0.0812 
2819 CL      -3.0029    25.2833    -5.1786 Cl    543 CCL4  -0.0812 
2820 CL       1.4704    22.8075     0.4060 Cl    544 CCL4  -0.0812 
2821 C        2.7366    21.5290     0.7380 C.3   544 CCL4   0.3246 
2822 CL       3.9438    22.2347     1.8204 Cl    544 CCL4  -0.0812 
2823 CL       3.4586    21.1136    -0.8389 Cl    544 CCL4  -0.0812 
2824 CL       1.9685    20.1165     1.5359 Cl    544 CCL4  -0.0812 
2825 CL       2.4076    31.4644    -0.8454 Cl    545 CCL4  -0.0812 
2826 C        3.1516    30.7658     0.5083 C.3   545 CCL4   0.3246 
2827 CL       2.1283    30.7990     1.9580 Cl    545 CCL4  -0.0812 
2828 CL       4.5265    31.7858     1.0147 Cl    545 CCL4  -0.0812 
2829 CL       3.7009    29.1364     0.1770 Cl    545 CCL4  -0.0812 
2830 CL      -8.7044    23.3392    -0.6485 Cl    546 CCL4  -0.0812 
2831 C       -7.9374    21.7596    -1.0724 C.3   546 CCL4   0.3246 
2832 CL      -9.3451    20.7132    -1.4192 Cl    546 CCL4  -0.0812 
2833 CL      -7.1070    21.2754     0.4084 Cl    546 CCL4  -0.0812 
2834 CL      -6.7775    21.6936    -2.3933 Cl    546 CCL4  -0.0812 
2835 CL       5.1361    25.1997    -8.3907 Cl    547 CCL4  -0.0812 
2836 C        3.5977    25.6241    -7.8021 C.3   547 CCL4   0.3246 
2837 CL       2.5159    25.9429    -9.2447 Cl    547 CCL4  -0.0812 
2838 CL       3.6874    27.0740    -6.8645 Cl    547 CCL4  -0.0812 
2839 CL       2.8629    24.3411    -6.8748 Cl    547 CCL4  -0.0812 
2840 CL       1.9529    26.5492    -1.9804 Cl    548 CCL4  -0.0812 
2841 C        0.9226    25.5677    -2.9425 C.3   548 CCL4   0.3246 
2842 CL       0.4439    26.4389    -4.4146 Cl    548 CCL4  -0.0812 
2843 CL      -0.4879    25.2110    -1.9726 Cl    548 CCL4  -0.0812 
2844 CL       1.7219    24.0847    -3.3563 Cl    548 CCL4  -0.0812 
2845 CL      -3.7790    29.4715    -1.2069 Cl    549 CCL4  -0.0812 
2846 C       -2.2940    29.7589    -2.1501 C.3   549 CCL4   0.3246 
2847 CL      -2.6650    29.4247    -3.8355 Cl    549 CCL4  -0.0812 
2848 CL      -1.0915    28.6920    -1.5004 Cl    549 CCL4  -0.0812 
2849 CL      -1.8679    31.5261    -2.0442 Cl    549 CCL4  -0.0812 
2850 CL      -5.4771    29.1941    -7.9320 Cl    550 CCL4  -0.0812 
2851 C       -6.5723    28.2318    -6.9970 C.3   550 CCL4   0.3246 
2852 CL      -8.2587    28.5244    -7.4625 Cl    550 CCL4  -0.0812 
2853 CL      -6.4956    28.7927    -5.3623 Cl    550 CCL4  -0.0812 
2854 CL      -6.1546    26.5190    -7.1073 Cl    550 CCL4  -0.0812 
2855 CL      -2.2838    23.8126     0.4062 Cl    551 CCL4  -0.0812 
2856 C       -3.5658    24.9012     1.0350 C.3   551 CCL4   0.3246 
2857 CL      -3.7928    24.3672     2.7452 Cl    551 CCL4  -0.0812 
2858 CL      -5.0135    24.7767     0.0659 Cl    551 CCL4  -0.0812 
2859 CL      -3.0410    26.6043     1.0092 Cl    551 CCL4  -0.0812 
2860 CL     -10.0666    25.2502     3.8743 Cl    552 CCL4  -0.0812 
2861 C       -8.4207    25.7024     3.9999 C.3   552 CCL4   0.3246 
2862 CL      -8.1167    27.4537     4.2222 Cl    552 CCL4  -0.0812 
2863 CL      -7.5757    25.1676     2.5239 Cl    552 CCL4  -0.0812 
2864 CL      -7.6653    24.7932     5.2473 Cl    552 CCL4  -0.0812 
2865 CL       6.2955    29.7432   -12.1317 Cl    553 CCL4  -0.0812 
2866 C        5.7454    28.3712   -11.1739 C.3   553 CCL4   0.3246 
2867 CL       4.7589    28.9230    -9.8086 Cl    553 CCL4  -0.0812 
2868 CL       7.1752    27.5714   -10.5723 Cl    553 CCL4  -0.0812 
2869 CL       4.7086    27.3024   -12.2412 Cl    553 CCL4  -0.0812 
2870 CL       7.0948    29.1829   -15.9576 Cl    554 CCL4  -0.0812 
2871 C        7.9624    27.6982   -15.9025 C.3   554 CCL4   0.3246 
2872 CL       7.4433    26.4601   -17.1151 Cl    554 CCL4  -0.0812 
2873 CL       7.6074    26.8924   -14.2183 Cl    554 CCL4  -0.0812 
2874 CL       9.7578    27.8547   -15.9453 Cl    554 CCL4  -0.0812 
2875 CL       5.6108    24.0965   -13.9292 Cl    555 CCL4  -0.0812 
2876 C        5.9850    23.2782   -12.4142 C.3   555 CCL4   0.3246 
2877 CL       7.2812    24.0953   -11.5623 Cl    555 CCL4  -0.0812 
2878 CL       6.5249    21.5872   -12.7097 Cl    555 CCL4  -0.0812 
2879 CL       4.5007    23.0736   -11.3320 Cl    555 CCL4  -0.0812 
2880 CL       9.8371    20.9434   -15.6577 Cl    556 CCL4  -0.0812 
2881 C        9.9210    22.4323   -14.7198 C.3   556 CCL4   0.3246 
2882 CL       9.9231    22.2327   -13.0187 Cl    556 CCL4  -0.0812 
2883 CL       8.6358    23.5450   -15.1927 Cl    556 CCL4  -0.0812 
2884 CL      11.3407    23.4954   -15.2361 Cl    556 CCL4  -0.0812 
2885 CL       9.5270    29.2778    -6.7334 Cl    557 CCL4  -0.0812 
2886 C        8.2687    30.3685    -7.3801 C.3   557 CCL4   0.3246 
2887 CL       6.5624    29.6646    -6.8519 Cl    557 CCL4  -0.0812 
2888 CL       8.2891    30.4404    -9.1516 Cl    557 CCL4  -0.0812 
2889 CL       8.1974    31.9740    -6.5957 Cl    557 CCL4  -0.0812 
2890 CL       7.8925    26.3206    -5.8410 Cl    558 CCL4  -0.0812 
2891 C        9.3714    25.6370    -6.5305 C.3   558 CCL4   0.3246 
2892 CL       9.5860    26.3997    -8.1695 Cl    558 CCL4  -0.0812 
2893 CL       9.2669    23.8854    -6.6417 Cl    558 CCL4  -0.0812 
2894 CL      10.7832    26.0246    -5.5456 Cl    558 CCL4  -0.0812 
2895 CL      -7.1274    27.8756    -1.6651 Cl    559 CCL4  -0.0812 
2896 C       -7.5555    28.8771    -0.2910 C.3   559 CCL4   0.3246 
2897 CL      -7.9275    30.5550    -0.7230 Cl    559 CCL4  -0.0812 
2898 CL      -9.1211    28.3067     0.4136 Cl    559 CCL4  -0.0812 
2899 CL      -6.3128    28.7653     0.9877 Cl    559 CCL4  -0.0812 
2900 CL       9.7222    28.1600     1.3934 Cl    560 CCL4  -0.0812 
2901 C        8.6923    28.9354     0.1384 C.3   560 CCL4   0.3246 
2902 CL       7.6420    27.7048    -0.5614 Cl    560 CCL4  -0.0812 
2903 CL       9.6469    29.7381    -1.1104 Cl    560 CCL4  -0.0812 
2904 CL       7.6616    30.1321     1.0922 Cl    560 CCL4  -0.0812 
2905 CL       5.1215    24.3329    -1.8709 Cl    561 CCL4  -0.0812 
2906 C        6.2359    23.6993    -3.1733 C.3   561 CCL4   0.3246 
2907 CL       6.4424    21.9668    -2.9693 Cl    561 CCL4  -0.0812 
2908 CL       7.6812    24.6020    -2.8108 Cl    561 CCL4  -0.0812 
2909 CL       5.5799    24.1990    -4.7359 Cl    561 CCL4  -0.0812 
2910 CL       7.6776    24.4185     1.5539 Cl    562 CCL4  -0.0812 
2911 C        8.3461    22.7609     1.2986 C.3   562 CCL4   0.3246 
2912 CL       9.9187    22.8516     0.5507 Cl    562 CCL4  -0.0812 
2913 CL       7.2881    21.8115     0.2273 Cl    562 CCL4  -0.0812 
2914 CL       8.6143    22.0655     2.9571 Cl    562 CCL4  -0.0812 
2915 CL       0.8398    23.1158    14.4214 Cl    563 CCL4  -0.0812 
2916 C        0.2420    24.1337    13.0262 C.3   563 CCL4   0.3246 
2917 CL      -0.9966    23.3549    11.9436 Cl    563 CCL4  -0.0812 
2918 CL       1.6195    24.6945    12.0271 Cl    563 CCL4  -0.0812 
2919 CL      -0.4889    25.6724    13.7667 Cl    563 CCL4  -0.0812 
2920 CL       0.5539    31.6743    13.5009 Cl    564 CCL4  -0.0812 
2921 C        0.0454    29.9470    13.7171 C.3   564 CCL4   0.3246 
2922 CL       1.4724    29.0036    14.1813 Cl    564 CCL4  -0.0812 
2923 CL      -0.6157    29.2643    12.2647 Cl    564 CCL4  -0.0812 
2924 CL      -1.0503    29.8316    15.1680 Cl    564 CCL4  -0.0812 
2925 CL      -4.5517    23.7966     9.6044 Cl    565 CCL4  -0.0812 
2926 C       -6.3331    23.2707     9.7536 C.3   565 CCL4   0.3246 
2927 CL      -6.3485    21.5776     9.9599 Cl    565 CCL4  -0.0812 
2928 CL      -7.3024    23.7024     8.2659 Cl    565 CCL4  -0.0812 
2929 CL      -6.9945    24.2006    11.1765 Cl    565 CCL4  -0.0812 
2930 CL      -0.3624    23.7077    17.5081 Cl    566 CCL4  -0.0812 
2931 C       -0.8633    22.0718    17.8635 C.3   566 CCL4   0.3246 
2932 CL       0.3692    20.9413    17.3204 Cl    566 CCL4  -0.0812 
2933 CL      -2.3007    21.6626    16.9093 Cl    566 CCL4  -0.0812 
2934 CL      -1.1928    21.9089    19.5500 Cl    566 CCL4  -0.0812 
2935 CL      -4.0396    24.4310    13.4463 Cl    567 CCL4  -0.0812 
2936 C       -4.7835    24.9216    14.9975 C.3   567 CCL4   0.3246 
2937 CL      -3.5596    25.4103    16.0703 Cl    567 CCL4  -0.0812 
2938 CL      -5.6604    23.5081    15.6135 Cl    567 CCL4  -0.0812 
2939 CL      -5.9740    26.2643    14.6927 Cl    567 CCL4  -0.0812 
2940 CL       5.0108    29.8723     3.9600 Cl    568 CCL4  -0.0812 
2941 C        6.0115    28.5462     4.7137 C.3   568 CCL4   0.3246 
2942 CL       6.4287    27.4675     3.3700 Cl    568 CCL4  -0.0812 
2943 CL       5.0753    27.7495     5.9512 Cl    568 CCL4  -0.0812 
2944 CL       7.4391    29.2752     5.4571 Cl    568 CCL4  -0.0812 
2945 CL       2.1849    29.1474     7.7156 Cl    569 CCL4  -0.0812 
2946 C        1.9374    27.5767     8.4813 C.3   569 CCL4   0.3246 
2947 CL       0.5586    27.6129     9.5648 Cl    569 CCL4  -0.0812 
2948 CL       3.3944    27.0907     9.4265 Cl    569 CCL4  -0.0812 
2949 CL       1.7147    26.2966     7.2023 Cl    569 CCL4  -0.0812 
2950 CL      -4.6164    27.3726     4.5344 Cl    570 CCL4  -0.0812 
2951 C       -4.1448    26.7793     6.1448 C.3   570 CCL4   0.3246 
2952 CL      -5.3249    27.3619     7.3039 Cl    570 CCL4  -0.0812 
2953 CL      -2.6078    27.5226     6.5971 Cl    570 CCL4  -0.0812 
2954 CL      -3.9398    25.0271     6.0704 Cl    570 CCL4  -0.0812 
2955 CL      -3.1667    26.6928    10.6840 Cl    571 CCL4  -0.0812 
2956 C       -4.1809    27.9321    11.4079 C.3   571 CCL4   0.3246 
2957 CL      -3.8515    29.4572    10.5643 Cl    571 CCL4  -0.0812 
2958 CL      -3.5600    28.1761    13.1260 Cl    571 CCL4  -0.0812 
2959 CL      -5.8563    27.4056    11.3806 Cl    571 CCL4  -0.0812 
2960 CL      -4.5545    26.1643    22.0684 Cl    572 CCL4  -0.0812 
2961 C       -4.0823    24.6983    21.0786 C.3   572 CCL4   0.3246 
2962 CL      -5.6263    24.1817    20.3258 Cl    572 CCL4  -0.0812 
2963 CL      -3.3048    23.3781    22.0576 Cl    572 CCL4  -0.0812 
2964 CL      -3.0029    25.2833    19.8214 Cl    572 CCL4  -0.0812 
2965 CL       5.1361    25.1997    16.6093 Cl    573 CCL4  -0.0812 
2966 C        3.5977    25.6241    17.1979 C.3   573 CCL4   0.3246 
2967 CL       2.5159    25.9429    15.7553 Cl    573 CCL4  -0.0812 
2968 CL       3.6874    27.0740    18.1355 Cl    573 CCL4  -0.0812 
2969 CL       2.8629    24.3411    18.1252 Cl    573 CCL4  -0.0812 
2970 CL      -5.4771    29.1941    17.0680 Cl    574 CCL4  -0.0812 
2971 C       -6.5723    28.2318    18.0030 C.3   574 CCL4   0.3246 
2972 CL      -8.2587    28.5244    17.5375 Cl    574 CCL4  -0.0812 
2973 CL      -6.4956    28.7927    19.6377 Cl    574 CCL4  -0.0812 
2974 CL      -6.1546    26.5190    17.8927 Cl    574 CCL4  -0.0812 
2975 CL       6.2955    29.7432    12.8683 Cl    575 CCL4  -0.0812 
2976 C        5.7454    28.3712    13.8261 C.3   575 CCL4   0.3246 
2977 CL       4.7589    28.9230    15.1914 Cl    575 CCL4  -0.0812 
2978 CL       7.1752    27.5714    14.4277 Cl    575 CCL4  -0.0812 
2979 CL       4.7086    27.3024    12.7588 Cl    575 CCL4  -0.0812 
2980 CL      10.1359    26.5159    12.8206 Cl    576 CCL4  -0.0812 
2981 C       10.8590    28.0986    12.8583 C.3   576 CCL4   0.3246 
2982 CL      11.1914    28.4651    14.6460 Cl    576 CCL4  -0.0812 
2983 CL       9.7214    29.3638    12.3337 Cl    576 CCL4  -0.0812 
2984 CL      12.3433    28.2933    11.9292 Cl    576 CCL4  -0.0812 
2985 CL       4.6081    21.4328     5.7605 Cl    577 CCL4  -0.0812 
2986 C        5.4992    22.9737     6.1038 C.3   577 CCL4   0.3246 
2987 CL       7.0161    22.6056     7.0704 Cl    577 CCL4  -0.0812 
2988 CL       4.4125    24.0645     7.0133 Cl    577 CCL4  -0.0812 
2989 CL       5.9375    23.7521     4.5662 Cl    577 CCL4  -0.0812 
2990 CL       7.0948    29.1829     9.0424 Cl    578 CCL4  -0.0812 
2991 C        7.9624    27.6982     9.0975 C.3   578 CCL4   0.3246 
2992 CL       7.4433    26.4601     7.8849 Cl    578 CCL4  -0.0812 
2993 CL       7.6074    26.8924    10.7817 Cl    578 CCL4  -0.0812 
2994 CL       9.7578    27.8547     9.0547 Cl    578 CCL4  -0.0812 
2995 CL       5.6108    24.0965    11.0708 Cl    579 CCL4  -0.0812 
2996 C        5.9850    23.2782    12.5858 C.3   579 CCL4   0.3246 
2997 CL       7.2812    24.0953    13.4377 Cl    579 CCL4  -0.0812 
2998 CL       6.5249    21.5872    12.2903 Cl    579 CCL4  -0.0812 
2999 CL       4.5007    23.0736    13.6680 Cl    579 CCL4  -0.0812 
3000 CL       9.8371    20.9434     9.3423 Cl    580 CCL4  -0.0812 
3001 C        9.9210    22.4323    10.2802 C.3   580 CCL4   0.3246 
3002 CL       9.9231    22.2327    11.9813 Cl    580 CCL4  -0.0812 
3003 CL       8.6358    23.5450     9.8073 Cl    580 CCL4  -0.0812 
3004 CL      11.3407    23.4954     9.7639 Cl    580 CCL4  -0.0812 
3005 CL       9.5270    29.2778    18.2666 Cl    581 CCL4  -0.0812 
3006 C        8.2687    30.3685    17.6199 C.3   581 CCL4   0.3246 
3007 CL       6.5624    29.6646    18.1481 Cl    581 CCL4  -0.0812 
3008 CL       8.2891    30.4404    15.8484 Cl    581 CCL4  -0.0812 
3009 CL       8.1974    31.9740    18.4043 Cl    581 CCL4  -0.0812 
3010 CL       7.8925    26.3206    19.1590 Cl    582 CCL4  -0.0812 
3011 C        9.3714    25.6370    18.4695 C.3   582 CCL4   0.3246 
3012 CL       9.5860    26.3997    16.8305 Cl    582 CCL4  -0.0812 
3013 CL       9.2669    23.8854    18.3583 Cl    582 CCL4  -0.0812 
3014 CL      10.7832    26.0246    19.4544 Cl    582 CCL4  -0.0812 
@<TRIPOS>BOND
   1    1    2  1   
   2    1    3  ar  
   3    1   27  ar  
   4    3    4  ar  
   5    3   28  1   
   6    4    5  ar  
   7    4   29  1   
   8    5    6  1   
   9    5   26  ar  
  10    6    7  1   
  11    6    8  1   
  12    6   61  1   
  13    8    9  ar  
  14    8   25  ar  
  15    9   10  ar  
  16    9   30  1   
  17   10   11  ar  
  18   10   31  1   
  19   11   12  1   
  20   11   24  ar  
  21   12   13  1   
  22   13   14  1   
  23   13   32  1   
  24   13   33  1   
  25   14   15  1   
  26   14   34  1   
  27   14   35  1   
  28   15   16  1   
  29   15   36  1   
  30   15   37  1   
  31   16   17  1   
  32   16   38  1   
  33   16   39  1   
  34   17   18  1   
  35   17   40  1   
  36   17   41  1   
  37   18   19  1   
  38   18   42  1   
  39   18   43  1   
  40   19   20  1   
  41   19   44  1   
  42   19   45  1   
  43   20   21  1   
  44   20   46  1   
  45   20   47  1   
  46   21   22  1   
  47   21   48  1   
  48   21   49  1   
  49   22   23  1   
  50   22   50  1   
  51   22   51  1   
  52   23   52  1   
  53   24   25  ar  
  54   24   53  1   
  55   25   54  1   
  56   26   27  ar  
  57   26   55  1   
  58   27   56  1   
  59   57   59  1   
  60   57  107  2   
  61   57  108  1   
  62   58   67  1   
  63   59   63  1   
  64   59   64  1   
  65   59   65  1   
  66   60   67  1   
  67   61   62  1   
  68   61   91  1   
  69   61   93  1   
  70   65   66  1   
  71   65   67  1   
  72   65  106  1   
  73   67   68  1   
  74   68   69  1   
  75   68  104  1   
  76   68  105  1   
  77   69   70  1   
  78   69   71  1   
  79   69  103  1   
  80   71   72  1   
  81   71   73  1   
  82   71   74  1   
  83   74   75  1   
  84   74   76  1   
  85   74  102  1   
  86   76   77  1   
  87   76   78  2   
  88   78   79  1   
  89   78   80  1   
  90   80   81  1   
  91   80  100  1   
  92   80  101  1   
  93   81   82  1   
  94   81   83  1   
  95   81   99  1   
  96   83   84  1   
  97   83   85  1   
  98   83   86  1   
  99   86   87  1   
 100   86   88  1   
 101   86   98  1   
 102   88   89  1   
 103   88   90  1   
 104   88   91  1   
 105   91   92  1   
 106   91   97  1   
 107   93   94  1   
 108   93   95  1   
 109   93   96  1   
 110  108  109  1   
 111  110  111  1   
 112  111  112  1   
 113  111  113  1   
 114  111  114  1   
 115  115  116  1   
 116  116  117  1   
 117  116  118  1   
 118  116  119  1   
 119  120  121  1   
 120  121  122  1   
 121  121  123  1   
 122  121  124  1   
 123  125  126  1   
 124  126  127  1   
 125  126  128  1   
 126  126  129  1   
 127  130  131  1   
 128  131  132  1   
 129  131  133  1   
 130  131  134  1   
 131  135  136  1   
 132  136  137  1   
 133  136  138  1   
 134  136  139  1   
 135  140  141  1   
 136  141  142  1   
 137  141  143  1   
 138  141  144  1   
 139  145  146  1   
 140  146  147  1   
 141  146  148  1   
 142  146  149  1   
 143  150  151  1   
 144  151  152  1   
 145  151  153  1   
 146  151  154  1   
 147  155  156  1   
 148  156  157  1   
 149  156  158  1   
 150  156  159  1   
 151  160  161  1   
 152  161  162  1   
 153  161  163  1   
 154  161  164  1   
 155  165  166  1   
 156  166  167  1   
 157  166  168  1   
 158  166  169  1   
 159  170  171  1   
 160  171  172  1   
 161  171  173  1   
 162  171  174  1   
 163  175  176  1   
 164  176  177  1   
 165  176  178  1   
 166  176  179  1   
 167  180  181  1   
 168  181  182  1   
 169  181  183  1   
 170  181  184  1   
 171  185  186  1   
 172  186  187  1   
 173  186  188  1   
 174  186  189  1   
 175  190  191  1   
 176  191  192  1   
 177  191  193  1   
 178  191  194  1   
 179  195  196  1   
 180  196  197  1   
 181  196  198  1   
 182  196  199  1   
 183  200  201  1   
 184  201  202  1   
 185  201  203  1   
 186  201  204  1   
 187  205  206  1   
 188  206  207  1   
 189  206  208  1   
 190  206  209  1   
 191  210  211  1   
 192  211  212  1   
 193  211  213  1   
 194  211  214  1   
 195  215  216  1   
 196  216  217  1   
 197  216  218  1   
 198  216  219  1   
 199  220  221  1   
 200  221  222  1   
 201  221  223  1   
 202  221  224  1   
 203  225  226  1   
 204  226  227  1   
 205  226  228  1   
 206  226  229  1   
 207  230  231  1   
 208  231  232  1   
 209  231  233  1   
 210  231  234  1   
 211  235  236  1   
 212  236  237  1   
 213  236  238  1   
 214  236  239  1   
 215  240  241  1   
 216  241  242  1   
 217  241  243  1   
 218  241  244  1   
 219  245  246  1   
 220  246  247  1   
 221  246  248  1   
 222  246  249  1   
 223  250  251  1   
 224  251  252  1   
 225  251  253  1   
 226  251  254  1   
 227  255  256  1   
 228  256  257  1   
 229  256  258  1   
 230  256  259  1   
 231  260  261  1   
 232  261  262  1   
 233  261  263  1   
 234  261  264  1   
 235  265  266  1   
 236  266  267  1   
 237  266  268  1   
 238  266  269  1   
 239  270  271  1   
 240  271  272  1   
 241  271  273  1   
 242  271  274  1   
 243  275  276  1   
 244  276  277  1   
 245  276  278  1   
 246  276  279  1   
 247  280  281  1   
 248  281  282  1   
 249  281  283  1   
 250  281  284  1   
 251  285  286  1   
 252  286  287  1   
 253  286  288  1   
 254  286  289  1   
 255  290  291  1   
 256  291  292  1   
 257  291  293  1   
 258  291  294  1   
 259  295  296  1   
 260  296  297  1   
 261  296  298  1   
 262  296  299  1   
 263  300  301  1   
 264  301  302  1   
 265  301  303  1   
 266  301  304  1   
 267  305  306  1   
 268  306  307  1   
 269  306  308  1   
 270  306  309  1   
 271  310  311  1   
 272  311  312  1   
 273  311  313  1   
 274  311  314  1   
 275  315  316  1   
 276  316  317  1   
 277  316  318  1   
 278  316  319  1   
 279  320  321  1   
 280  321  322  1   
 281  321  323  1   
 282  321  324  1   
 283  325  326  1   
 284  326  327  1   
 285  326  328  1   
 286  326  329  1   
 287  330  331  1   
 288  331  332  1   
 289  331  333  1   
 290  331  334  1   
 291  335  336  1   
 292  336  337  1   
 293  336  338  1   
 294  336  339  1   
 295  340  341  1   
 296  341  342  1   
 297  341  343  1   
 298  341  344  1   
 299  345  346  1   
 300  346  347  1   
 301  346  348  1   
 302  346  349  1   
 303  350  351  1   
 304  351  352  1   
 305  351  353  1   
 306  351  354  1   
 307  355  356  1   
 308  356  357  1   
 309  356  358  1   
 310  356  359  1   
 311  360  361  1   
 312  361  362  1   
 313  361  363  1   
 314  361  364  1   
 315  365  366  1   
 316  366  367  1   
 317  366  368  1   
 318  366  369  1   
 319  370  371  1   
 320  371  372  1   
 321  371  373  1   
 322  371  374  1   
 323  375  376  1   
 324  376  377  1   
 325  376  378  1   
 326  376  379  1   
 327  380  381  1   
 328  381  382  1   
 329  381  383  1   
 330  381  384  1   
 331  385  386  1   
 332  386  387  1   
 333  386  388  1   
 334  386  389  1   
 335  390  391  1   
 336  391  392  1   
 337  391  393  1   
 338  391  394  1   
 339  395  396  1   
 340  396  397  1   
 341  396  398  1   
 342  396  399  1   
 343  400  401  1   
 344  401  402  1   
 345  401  403  1   
 346  401  404  1   
 347  405  406  1   
 348  406  407  1   
 349  406  408  1   
 350  406  409  1   
 351  410  411  1   
 352  411  412  1   
 353  411  413  1   
 354  411  414  1   
 355  415  416  1   
 356  416  417  1   
 357  416  418  1   
 358  416  419  1   
 359  420  421  1   
 360  421  422  1   
 361  421  423  1   
 362  421  424  1   
 363  425  426  1   
 364  426  427  1   
 365  426  428  1   
 366  426  429  1   
 367  430  431  1   
 368  431  432  1   
 369  431  433  1   
 370  431  434  1   
 371  435  436  1   
 372  436  437  1   
 373  436  438  1   
 374  436  439  1   
 375  440  441  1   
 376  441  442  1   
 377  441  443  1   
 378  441  444  1   
 379  445  446  1   
 380  446  447  1   
 381  446  448  1   
 382  446  449  1   
 383  450  451  1   
 384  451  452  1   
 385  451  453  1   
 386  451  454  1   
 387  455  456  1   
 388  456  457  1   
 389  456  458  1   
 390  456  459  1   
 391  460  461  1   
 392  461  462  1   
 393  461  463  1   
 394  461  464  1   
 395  465  466  1   
 396  466  467  1   
 397  466  468  1   
 398  466  469  1   
 399  470  471  1   
 400  471  472  1   
 401  471  473  1   
 402  471  474  1   
 403  475  476  1   
 404  476  477  1   
 405  476  478  1   
 406  476  479  1   
 407  480  481  1   
 408  481  482  1   
 409  481  483  1   
 410  481  484  1   
 411  485  486  1   
 412  486  487  1   
 413  486  488  1   
 414  486  489  1   
 415  490  491  1   
 416  491  492  1   
 417  491  493  1   
 418  491  494  1   
 419  495  496  1   
 420  496  497  1   
 421  496  498  1   
 422  496  499  1   
 423  500  501  1   
 424  501  502  1   
 425  501  503  1   
 426  501  504  1   
 427  505  506  1   
 428  506  507  1   
 429  506  508  1   
 430  506  509  1   
 431  510  511  1   
 432  511  512  1   
 433  511  513  1   
 434  511  514  1   
 435  515  516  1   
 436  516  517  1   
 437  516  518  1   
 438  516  519  1   
 439  520  521  1   
 440  521  522  1   
 441  521  523  1   
 442  521  524  1   
 443  525  526  1   
 444  526  527  1   
 445  526  528  1   
 446  526  529  1   
 447  530  531  1   
 448  531  532  1   
 449  531  533  1   
 450  531  534  1   
 451  535  536  1   
 452  536  537  1   
 453  536  538  1   
 454  536  539  1   
 455  540  541  1   
 456  541  542  1   
 457  541  543  1   
 458  541  544  1   
 459  545  546  1   
 460  546  547  1   
 461  546  548  1   
 462  546  549  1   
 463  550  551  1   
 464  551  552  1   
 465  551  553  1   
 466  551  554  1   
 467  555  556  1   
 468  556  557  1   
 469  556  558  1   
 470  556  559  1   
 471  560  561  1   
 472  561  562  1   
 473  561  563  1   
 474  561  564  1   
 475  565  566  1   
 476  566  567  1   
 477  566  568  1   
 478  566  569  1   
 479  570  571  1   
 480  571  572  1   
 481  571  573  1   
 482  571  574  1   
 483  575  576  1   
 484  576  577  1   
 485  576  578  1   
 486  576  579  1   
 487  580  581  1   
 488  581  582  1   
 489  581  583  1   
 490  581  584  1   
 491  585  586  1   
 492  586  587  1   
 493  586  588  1   
 494  586  589  1   
 495  590  591  1   
 496  591  592  1   
 497  591  593  1   
 498  591  594  1   
 499  595  596  1   
 500  596  597  1   
 501  596  598  1   
 502  596  599  1   
 503  600  601  1   
 504  601  602  1   
 505  601  603  1   
 506  601  604  1   
 507  605  606  1   
 508  606  607  1   
 509  606  608  1   
 510  606  609  1   
 511  610  611  1   
 512  611  612  1   
 513  611  613  1   
 514  611  614  1   
 515  615  616  1   
 516  616  617  1   
 517  616  618  1   
 518  616  619  1   
 519  620  621  1   
 520  621  622  1   
 521  621  623  1   
 522  621  624  1   
 523  625  626  1   
 524  626  627  1   
 525  626  628  1   
 526  626  629  1   
 527  630  631  1   
 528  631  632  1   
 529  631  633  1   
 530  631  634  1   
 531  635  636  1   
 532  636  637  1   
 533  636  638  1   
 534  636  639  1   
 535  640  641  1   
 536  641  642  1   
 537  641  643  1   
 538  641  644  1   
 539  645  646  1   
 540  646  647  1   
 541  646  648  1   
 542  646  649  1   
 543  650  651  1   
 544  651  652  1   
 545  651  653  1   
 546  651  654  1   
 547  655  656  1   
 548  656  657  1   
 549  656  658  1   
 550  656  659  1   
 551  660  661  1   
 552  661  662  1   
 553  661  663  1   
 554  661  664  1   
 555  665  666  1   
 556  666  667  1   
 557  666  668  1   
 558  666  669  1   
 559  670  671  1   
 560  671  672  1   
 561  671  673  1   
 562  671  674  1   
 563  675  676  1   
 564  676  677  1   
 565  676  678  1   
 566  676  679  1   
 567  680  681  1   
 568  681  682  1   
 569  681  683  1   
 570  681  684  1   
 571  685  686  1   
 572  686  687  1   
 573  686  688  1   
 574  686  689  1   
 575  690  691  1   
 576  691  692  1   
 577  691  693  1   
 578  691  694  1   
 579  695  696  1   
 580  696  697  1   
 581  696  698  1   
 582  696  699  1   
 583  700  701  1   
 584  701  702  1   
 585  701  703  1   
 586  701  704  1   
 587  705  706  1   
 588  706  707  1   
 589  706  708  1   
 590  706  709  1   
 591  710  711  1   
 592  711  712  1   
 593  711  713  1   
 594  711  714  1   
 595  715  716  1   
 596  716  717  1   
 597  716  718  1   
 598  716  719  1   
 599  720  721  1   
 600  721  722  1   
 601  721  723  1   
 602  721  724  1   
 603  725  726  1   
 604  726  727  1   
 605  726  728  1   
 606  726  729  1   
 607  730  731  1   
 608  731  732  1   
 609  731  733  1   
 610  731  734  1   
 611  735  736  1   
 612  736  737  1   
 613  736  738  1   
 614  736  739  1   
 615  740  741  1   
 616  741  742  1   
 617  741  743  1   
 618  741  744  1   
 619  745  746  1   
 620  746  747  1   
 621  746  748  1   
 622  746  749  1   
 623  750  751  1   
 624  751  752  1   
 625  751  753  1   
 626  751  754  1   
 627  755  756  1   
 628  756  757  1   
 629  756  758  1   
 630  756  759  1   
 631  760  761  1   
 632  761  762  1   
 633  761  763  1   
 634  761  764  1   
 635  765  766  1   
 636  766  767  1   
 637  766  768  1   
 638  766  769  1   
 639  770  771  1   
 640  771  772  1   
 641  771  773  1   
 642  771  774  1   
 643  775  776  1   
 644  776  777  1   
 645  776  778  1   
 646  776  779  1   
 647  780  781  1   
 648  781  782  1   
 649  781  783  1   
 650  781  784  1   
 651  785  786  1   
 652  786  787  1   
 653  786  788  1   
 654  786  789  1   
 655  790  791  1   
 656  791  792  1   
 657  791  793  1   
 658  791  794  1   
 659  795  796  1   
 660  796  797  1   
 661  796  798  1   
 662  796  799  1   
 663  800  801  1   
 664  801  802  1   
 665  801  803  1   
 666  801  804  1   
 667  805  806  1   
 668  806  807  1   
 669  806  808  1   
 670  806  809  1   
 671  810  811  1   
 672  811  812  1   
 673  811  813  1   
 674  811  814  1   
 675  815  816  1   
 676  816  817  1   
 677  816  818  1   
 678  816  819  1   
 679  820  821  1   
 680  821  822  1   
 681  821  823  1   
 682  821  824  1   
 683  825  826  1   
 684  826  827  1   
 685  826  828  1   
 686  826  829  1   
 687  830  831  1   
 688  831  832  1   
 689  831  833  1   
 690  831  834  1   
 691  835  836  1   
 692  836  837  1   
 693  836  838  1   
 694  836  839  1   
 695  840  841  1   
 696  841  842  1   
 697  841  843  1   
 698  841  844  1   
 699  845  846  1   
 700  846  847  1   
 701  846  848  1   
 702  846  849  1   
 703  850  851  1   
 704  851  852  1   
 705  851  853  1   
 706  851  854  1   
 707  855  856  1   
 708  856  857  1   
 709  856  858  1   
 710  856  859  1   
 711  860  861  1   
 712  861  862  1   
 713  861  863  1   
 714  861  864  1   
 715  865  866  1   
 716  866  867  1   
 717  866  868  1   
 718  866  869  1   
 719  870  871  1   
 720  871  872  1   
 721  871  873  1   
 722  871  874  1   
 723  875  876  1   
 724  876  877  1   
 725  876  878  1   
 726  876  879  1   
 727  880  881  1   
 728  881  882  1   
 729  881  883  1   
 730  881  884  1   
 731  885  886  1   
 732  886  887  1   
 733  886  888  1   
 734  886  889  1   
 735  890  891  1   
 736  891  892  1   
 737  891  893  1   
 738  891  894  1   
 739  895  896  1   
 740  896  897  1   
 741  896  898  1   
 742  896  899  1   
 743  900  901  1   
 744  901  902  1   
 745  901  903  1   
 746  901  904  1   
 747  905  906  1   
 748  906  907  1   
 749  906  908  1   
 750  906  909  1   
 751  910  911  1   
 752  911  912  1   
 753  911  913  1   
 754  911  914  1   
 755  915  916  1   
 756  916  917  1   
 757  916  918  1   
 758  916  919  1   
 759  920  921  1   
 760  921  922  1   
 761  921  923  1   
 762  921  924  1   
 763  925  926  1   
 764  926  927  1   
 765  926  928  1   
 766  926  929  1   
 767  930  931  1   
 768  931  932  1   
 769  931  933  1   
 770  931  934  1   
 771  935  936  1   
 772  936  937  1   
 773  936  938  1   
 774  936  939  1   
 775  940  941  1   
 776  941  942  1   
 777  941  943  1   
 778  941  944  1   
 779  945  946  1   
 780  946  947  1   
 781  946  948  1   
 782  946  949  1   
 783  950  951  1   
 784  951  952  1   
 785  951  953  1   
 786  951  954  1   
 787  955  956  1   
 788  956  957  1   
 789  956  958  1   
 790  956  959  1   
 791  960  961  1   
 792  961  962  1   
 793  961  963  1   
 794  961  964  1   
 795  965  966  1   
 796  966  967  1   
 797  966  968  1   
 798  966  969  1   
 799  970  971  1   
 800  971  972  1   
 801  971  973  1   
 802  971  974  1   
 803  975  976  1   
 804  976  977  1   
 805  976  978  1   
 806  976  979  1   
 807  980  981  1   
 808  981  982  1   
 809  981  983  1   
 810  981  984  1   
 811  985  986  1   
 812  986  987  1   
 813  986  988  1   
 814  986  989  1   
 815  990  991  1   
 816  991  992  1   
 817  991  993  1   
 818  991  994  1   
 819  995  996  1   
 820  996  997  1   
 821  996  998  1   
 822  996  999  1   
 823 1000 1001  1   
 824 1001 1002  1   
 825 1001 1003  1   
 826 1001 1004  1   
 827 1005 1006  1   
 828 1006 1007  1   
 829 1006 1008  1   
 830 1006 1009  1   
 831 1010 1011  1   
 832 1011 1012  1   
 833 1011 1013  1   
 834 1011 1014  1   
 835 1015 1016  1   
 836 1016 1017  1   
 837 1016 1018  1   
 838 1016 1019  1   
 839 1020 1021  1   
 840 1021 1022  1   
 841 1021 1023  1   
 842 1021 1024  1   
 843 1025 1026  1   
 844 1026 1027  1   
 845 1026 1028  1   
 846 1026 1029  1   
 847 1030 1031  1   
 848 1031 1032  1   
 849 1031 1033  1   
 850 1031 1034  1   
 851 1035 1036  1   
 852 1036 1037  1   
 853 1036 1038  1   
 854 1036 1039  1   
 855 1040 1041  1   
 856 1041 1042  1   
 857 1041 1043  1   
 858 1041 1044  1   
 859 1045 1046  1   
 860 1046 1047  1   
 861 1046 1048  1   
 862 1046 1049  1   
 863 1050 1051  1   
 864 1051 1052  1   
 865 1051 1053  1   
 866 1051 1054  1   
 867 1055 1056  1   
 868 1056 1057  1   
 869 1056 1058  1   
 870 1056 1059  1   
 871 1060 1061  1   
 872 1061 1062  1   
 873 1061 1063  1   
 874 1061 1064  1   
 875 1065 1066  1   
 876 1066 1067  1   
 877 1066 1068  1   
 878 1066 1069  1   
 879 1070 1071  1   
 880 1071 1072  1   
 881 1071 1073  1   
 882 1071 1074  1   
 883 1075 1076  1   
 884 1076 1077  1   
 885 1076 1078  1   
 886 1076 1079  1   
 887 1080 1081  1   
 888 1081 1082  1   
 889 1081 1083  1   
 890 1081 1084  1   
 891 1085 1086  1   
 892 1086 1087  1   
 893 1086 1088  1   
 894 1086 1089  1   
 895 1090 1091  1   
 896 1091 1092  1   
 897 1091 1093  1   
 898 1091 1094  1   
 899 1095 1096  1   
 900 1096 1097  1   
 901 1096 1098  1   
 902 1096 1099  1   
 903 1100 1101  1   
 904 1101 1102  1   
 905 1101 1103  1   
 906 1101 1104  1   
 907 1105 1106  1   
 908 1106 1107  1   
 909 1106 1108  1   
 910 1106 1109  1   
 911 1110 1111  1   
 912 1111 1112  1   
 913 1111 1113  1   
 914 1111 1114  1   
 915 1115 1116  1   
 916 1116 1117  1   
 917 1116 1118  1   
 918 1116 1119  1   
 919 1120 1121  1   
 920 1121 1122  1   
 921 1121 1123  1   
 922 1121 1124  1   
 923 1125 1126  1   
 924 1126 1127  1   
 925 1126 1128  1   
 926 1126 1129  1   
 927 1130 1131  1   
 928 1131 1132  1   
 929 1131 1133  1   
 930 1131 1134  1   
 931 1135 1136  1   
 932 1136 1137  1   
 933 1136 1138  1   
 934 1136 1139  1   
 935 1140 1141  1   
 936 1141 1142  1   
 937 1141 1143  1   
 938 1141 1144  1   
 939 1145 1146  1   
 940 1146 1147  1   
 941 1146 1148  1   
 942 1146 1149  1   
 943 1150 1151  1   
 944 1151 1152  1   
 945 1151 1153  1   
 946 1151 1154  1   
 947 1155 1156  1   
 948 1156 1157  1   
 949 1156 1158  1   
 950 1156 1159  1   
 951 1160 1161  1   
 952 1161 1162  1   
 953 1161 1163  1   
 954 1161 1164  1   
 955 1165 1166  1   
 956 1166 1167  1   
 957 1166 1168  1   
 958 1166 1169  1   
 959 1170 1171  1   
 960 1171 1172  1   
 961 1171 1173  1   
 962 1171 1174  1   
 963 1175 1176  1   
 964 1176 1177  1   
 965 1176 1178  1   
 966 1176 1179  1   
 967 1180 1181  1   
 968 1181 1182  1   
 969 1181 1183  1   
 970 1181 1184  1   
 971 1185 1186  1   
 972 1186 1187  1   
 973 1186 1188  1   
 974 1186 1189  1   
 975 1190 1191  1   
 976 1191 1192  1   
 977 1191 1193  1   
 978 1191 1194  1   
 979 1195 1196  1   
 980 1196 1197  1   
 981 1196 1198  1   
 982 1196 1199  1   
 983 1200 1201  1   
 984 1201 1202  1   
 985 1201 1203  1   
 986 1201 1204  1   
 987 1205 1206  1   
 988 1206 1207  1   
 989 1206 1208  1   
 990 1206 1209  1   
 991 1210 1211  1   
 992 1211 1212  1   
 993 1211 1213  1   
 994 1211 1214  1   
 995 1215 1216  1   
 996 1216 1217  1   
 997 1216 1218  1   
 998 1216 1219  1   
 999 1220 1221  1   
1000 1221 1222  1   
1001 1221 1223  1   
1002 1221 1224  1   
1003 1225 1226  1   
1004 1226 1227  1   
1005 1226 1228  1   
1006 1226 1229  1   
1007 1230 1231  1   
1008 1231 1232  1   
1009 1231 1233  1   
1010 1231 1234  1   
1011 1235 1236  1   
1012 1236 1237  1   
1013 1236 1238  1   
1014 1236 1239  1   
1015 1240 1241  1   
1016 1241 1242  1   
1017 1241 1243  1   
1018 1241 1244  1   
1019 1245 1246  1   
1020 1246 1247  1   
1021 1246 1248  1   
1022 1246 1249  1   
1023 1250 1251  1   
1024 1251 1252  1   
1025 1251 1253  1   
1026 1251 1254  1   
1027 1255 1256  1   
1028 1256 1257  1   
1029 1256 1258  1   
1030 1256 1259  1   
1031 1260 1261  1   
1032 1261 1262  1   
1033 1261 1263  1   
1034 1261 1264  1   
1035 1265 1266  1   
1036 1266 1267  1   
1037 1266 1268  1   
1038 1266 1269  1   
1039 1270 1271  1   
1040 1271 1272  1   
1041 1271 1273  1   
1042 1271 1274  1   
1043 1275 1276  1   
1044 1276 1277  1   
1045 1276 1278  1   
1046 1276 1279  1   
1047 1280 1281  1   
1048 1281 1282  1   
1049 1281 1283  1   
1050 1281 1284  1   
1051 1285 1286  1   
1052 1286 1287  1   
1053 1286 1288  1   
1054 1286 1289  1   
1055 1290 1291  1   
1056 1291 1292  1   
1057 1291 1293  1   
1058 1291 1294  1   
1059 1295 1296  1   
1060 1296 1297  1   
1061 1296 1298  1   
1062 1296 1299  1   
1063 1300 1301  1   
1064 1301 1302  1   
1065 1301 1303  1   
1066 1301 1304  1   
1067 1305 1306  1   
1068 1306 1307  1   
1069 1306 1308  1   
1070 1306 1309  1   
1071 1310 1311  1   
1072 1311 1312  1   
1073 1311 1313  1   
1074 1311 1314  1   
1075 1315 1316  1   
1076 1316 1317  1   
1077 1316 1318  1   
1078 1316 1319  1   
1079 1320 1321  1   
1080 1321 1322  1   
1081 1321 1323  1   
1082 1321 1324  1   
1083 1325 1326  1   
1084 1326 1327  1   
1085 1326 1328  1   
1086 1326 1329  1   
1087 1330 1331  1   
1088 1331 1332  1   
1089 1331 1333  1   
1090 1331 1334  1   
1091 1335 1336  1   
1092 1336 1337  1   
1093 1336 1338  1   
1094 1336 1339  1   
1095 1340 1341  1   
1096 1341 1342  1   
1097 1341 1343  1   
1098 1341 1344  1   
1099 1345 1346  1   
1100 1346 1347  1   
1101 1346 1348  1   
1102 1346 1349  1   
1103 1350 1351  1   
1104 1351 1352  1   
1105 1351 1353  1   
1106 1351 1354  1   
1107 1355 1356  1   
1108 1356 1357  1   
1109 1356 1358  1   
1110 1356 1359  1   
1111 1360 1361  1   
1112 1361 1362  1   
1113 1361 1363  1   
1114 1361 1364  1   
1115 1365 1366  1   
1116 1366 1367  1   
1117 1366 1368  1   
1118 1366 1369  1   
1119 1370 1371  1   
1120 1371 1372  1   
1121 1371 1373  1   
1122 1371 1374  1   
1123 1375 1376  1   
1124 1376 1377  1   
1125 1376 1378  1   
1126 1376 1379  1   
1127 1380 1381  1   
1128 1381 1382  1   
1129 1381 1383  1   
1130 1381 1384  1   
1131 1385 1386  1   
1132 1386 1387  1   
1133 1386 1388  1   
1134 1386 1389  1   
1135 1390 1391  1   
1136 1391 1392  1   
1137 1391 1393  1   
1138 1391 1394  1   
1139 1395 1396  1   
1140 1396 1397  1   
1141 1396 1398  1   
1142 1396 1399  1   
1143 1400 1401  1   
1144 1401 1402  1   
1145 1401 1403  1   
1146 1401 1404  1   
1147 1405 1406  1   
1148 1406 1407  1   
1149 1406 1408  1   
1150 1406 1409  1   
1151 1410 1411  1   
1152 1411 1412  1   
1153 1411 1413  1   
1154 1411 1414  1   
1155 1415 1416  1   
1156 1416 1417  1   
1157 1416 1418  1   
1158 1416 1419  1   
1159 1420 1421  1   
1160 1421 1422  1   
1161 1421 1423  1   
1162 1421 1424  1   
1163 1425 1426  1   
1164 1426 1427  1   
1165 1426 1428  1   
1166 1426 1429  1   
1167 1430 1431  1   
1168 1431 1432  1   
1169 1431 1433  1   
1170 1431 1434  1   
1171 1435 1436  1   
1172 1436 1437  1   
1173 1436 1438  1   
1174 1436 1439  1   
1175 1440 1441  1   
1176 1441 1442  1   
1177 1441 1443  1   
1178 1441 1444  1   
1179 1445 1446  1   
1180 1446 1447  1   
1181 1446 1448  1   
1182 1446 1449  1   
1183 1450 1451  1   
1184 1451 1452  1   
1185 1451 1453  1   
1186 1451 1454  1   
1187 1455 1456  1   
1188 1456 1457  1   
1189 1456 1458  1   
1190 1456 1459  1   
1191 1460 1461  1   
1192 1461 1462  1   
1193 1461 1463  1   
1194 1461 1464  1   
1195 1465 1466  1   
1196 1466 1467  1   
1197 1466 1468  1   
1198 1466 1469  1   
1199 1470 1471  1   
1200 1471 1472  1   
1201 1471 1473  1   
1202 1471 1474  1   
1203 1475 1476  1   
1204 1476 1477  1   
1205 1476 1478  1   
1206 1476 1479  1   
1207 1480 1481  1   
1208 1481 1482  1   
1209 1481 1483  1   
1210 1481 1484  1   
1211 1485 1486  1   
1212 1486 1487  1   
1213 1486 1488  1   
1214 1486 1489  1   
1215 1490 1491  1   
1216 1491 1492  1   
1217 1491 1493  1   
1218 1491 1494  1   
1219 1495 1496  1   
1220 1496 1497  1   
1221 1496 1498  1   
1222 1496 1499  1   
1223 1500 1501  1   
1224 1501 1502  1   
1225 1501 1503  1   
1226 1501 1504  1   
1227 1505 1506  1   
1228 1506 1507  1   
1229 1506 1508  1   
1230 1506 1509  1   
1231 1510 1511  1   
1232 1511 1512  1   
1233 1511 1513  1   
1234 1511 1514  1   
1235 1515 1516  1   
1236 1516 1517  1   
1237 1516 1518  1   
1238 1516 1519  1   
1239 1520 1521  1   
1240 1521 1522  1   
1241 1521 1523  1   
1242 1521 1524  1   
1243 1525 1526  1   
1244 1526 1527  1   
1245 1526 1528  1   
1246 1526 1529  1   
1247 1530 1531  1   
1248 1531 1532  1   
1249 1531 1533  1   
1250 1531 1534  1   
1251 1535 1536  1   
1252 1536 1537  1   
1253 1536 1538  1   
1254 1536 1539  1   
1255 1540 1541  1   
1256 1541 1542  1   
1257 1541 1543  1   
1258 1541 1544  1   
1259 1545 1546  1   
1260 1546 1547  1   
1261 1546 1548  1   
1262 1546 1549  1   
1263 1550 1551  1   
1264 1551 1552  1   
1265 1551 1553  1   
1266 1551 1554  1   
1267 1555 1556  1   
1268 1556 1557  1   
1269 1556 1558  1   
1270 1556 1559  1   
1271 1560 1561  1   
1272 1561 1562  1   
1273 1561 1563  1   
1274 1561 1564  1   
1275 1565 1566  1   
1276 1566 1567  1   
1277 1566 1568  1   
1278 1566 1569  1   
1279 1570 1571  1   
1280 1571 1572  1   
1281 1571 1573  1   
1282 1571 1574  1   
1283 1575 1576  1   
1284 1576 1577  1   
1285 1576 1578  1   
1286 1576 1579  1   
1287 1580 1581  1   
1288 1581 1582  1   
1289 1581 1583  1   
1290 1581 1584  1   
1291 1585 1586  1   
1292 1586 1587  1   
1293 1586 1588  1   
1294 1586 1589  1   
1295 1590 1591  1   
1296 1591 1592  1   
1297 1591 1593  1   
1298 1591 1594  1   
1299 1595 1596  1   
1300 1596 1597  1   
1301 1596 1598  1   
1302 1596 1599  1   
1303 1600 1601  1   
1304 1601 1602  1   
1305 1601 1603  1   
1306 1601 1604  1   
1307 1605 1606  1   
1308 1606 1607  1   
1309 1606 1608  1   
1310 1606 1609  1   
1311 1610 1611  1   
1312 1611 1612  1   
1313 1611 1613  1   
1314 1611 1614  1   
1315 1615 1616  1   
1316 1616 1617  1   
1317 1616 1618  1   
1318 1616 1619  1   
1319 1620 1621  1   
1320 1621 1622  1   
1321 1621 1623  1   
1322 1621 1624  1   
1323 1625 1626  1   
1324 1626 1627  1   
1325 1626 1628  1   
1326 1626 1629  1   
1327 1630 1631  1   
1328 1631 1632  1   
1329 1631 1633  1   
1330 1631 1634  1   
1331 1635 1636  1   
1332 1636 1637  1   
1333 1636 1638  1   
1334 1636 1639  1   
1335 1640 1641  1   
1336 1641 1642  1   
1337 1641 1643  1   
1338 1641 1644  1   
1339 1645 1646  1   
1340 1646 1647  1   
1341 1646 1648  1   
1342 1646 1649  1   
1343 1650 1651  1   
1344 1651 1652  1   
1345 1651 1653  1   
1346 1651 1654  1   
1347 1655 1656  1   
1348 1656 1657  1   
1349 1656 1658  1   
1350 1656 1659  1   
1351 1660 1661  1   
1352 1661 1662  1   
1353 1661 1663  1   
1354 1661 1664  1   
1355 1665 1666  1   
1356 1666 1667  1   
1357 1666 1668  1   
1358 1666 1669  1   
1359 1670 1671  1   
1360 1671 1672  1   
1361 1671 1673  1   
1362 1671 1674  1   
1363 1675 1676  1   
1364 1676 1677  1   
1365 1676 1678  1   
1366 1676 1679  1   
1367 1680 1681  1   
1368 1681 1682  1   
1369 1681 1683  1   
1370 1681 1684  1   
1371 1685 1686  1   
1372 1686 1687  1   
1373 1686 1688  1   
1374 1686 1689  1   
1375 1690 1691  1   
1376 1691 1692  1   
1377 1691 1693  1   
1378 1691 1694  1   
1379 1695 1696  1   
1380 1696 1697  1   
1381 1696 1698  1   
1382 1696 1699  1   
1383 1700 1701  1   
1384 1701 1702  1   
1385 1701 1703  1   
1386 1701 1704  1   
1387 1705 1706  1   
1388 1706 1707  1   
1389 1706 1708  1   
1390 1706 1709  1   
1391 1710 1711  1   
1392 1711 1712  1   
1393 1711 1713  1   
1394 1711 1714  1   
1395 1715 1716  1   
1396 1716 1717  1   
1397 1716 1718  1   
1398 1716 1719  1   
1399 1720 1721  1   
1400 1721 1722  1   
1401 1721 1723  1   
1402 1721 1724  1   
1403 1725 1726  1   
1404 1726 1727  1   
1405 1726 1728  1   
1406 1726 1729  1   
1407 1730 1731  1   
1408 1731 1732  1   
1409 1731 1733  1   
1410 1731 1734  1   
1411 1735 1736  1   
1412 1736 1737  1   
1413 1736 1738  1   
1414 1736 1739  1   
1415 1740 1741  1   
1416 1741 1742  1   
1417 1741 1743  1   
1418 1741 1744  1   
1419 1745 1746  1   
1420 1746 1747  1   
1421 1746 1748  1   
1422 1746 1749  1   
1423 1750 1751  1   
1424 1751 1752  1   
1425 1751 1753  1   
1426 1751 1754  1   
1427 1755 1756  1   
1428 1756 1757  1   
1429 1756 1758  1   
1430 1756 1759  1   
1431 1760 1761  1   
1432 1761 1762  1   
1433 1761 1763  1   
1434 1761 1764  1   
1435 1765 1766  1   
1436 1766 1767  1   
1437 1766 1768  1   
1438 1766 1769  1   
1439 1770 1771  1   
1440 1771 1772  1   
1441 1771 1773  1   
1442 1771 1774  1   
1443 1775 1776  1   
1444 1776 1777  1   
1445 1776 1778  1   
1446 1776 1779  1   
1447 1780 1781  1   
1448 1781 1782  1   
1449 1781 1783  1   
1450 1781 1784  1   
1451 1785 1786  1   
1452 1786 1787  1   
1453 1786 1788  1   
1454 1786 1789  1   
1455 1790 1791  1   
1456 1791 1792  1   
1457 1791 1793  1   
1458 1791 1794  1   
1459 1795 1796  1   
1460 1796 1797  1   
1461 1796 1798  1   
1462 1796 1799  1   
1463 1800 1801  1   
1464 1801 1802  1   
1465 1801 1803  1   
1466 1801 1804  1   
1467 1805 1806  1   
1468 1806 1807  1   
1469 1806 1808  1   
1470 1806 1809  1   
1471 1810 1811  1   
1472 1811 1812  1   
1473 1811 1813  1   
1474 1811 1814  1   
1475 1815 1816  1   
1476 1816 1817  1   
1477 1816 1818  1   
1478 1816 1819  1   
1479 1820 1821  1   
1480 1821 1822  1   
1481 1821 1823  1   
1482 1821 1824  1   
1483 1825 1826  1   
1484 1826 1827  1   
1485 1826 1828  1   
1486 1826 1829  1   
1487 1830 1831  1   
1488 1831 1832  1   
1489 1831 1833  1   
1490 1831 1834  1   
1491 1835 1836  1   
1492 1836 1837  1   
1493 1836 1838  1   
1494 1836 1839  1   
1495 1840 1841  1   
1496 1841 1842  1   
1497 1841 1843  1   
1498 1841 1844  1   
1499 1845 1846  1   
1500 1846 1847  1   
1501 1846 1848  1   
1502 1846 1849  1   
1503 1850 1851  1   
1504 1851 1852  1   
1505 1851 1853  1   
1506 1851 1854  1   
1507 1855 1856  1   
1508 1856 1857  1   
1509 1856 1858  1   
1510 1856 1859  1   
1511 1860 1861  1   
1512 1861 1862  1   
1513 1861 1863  1   
1514 1861 1864  1   
1515 1865 1866  1   
1516 1866 1867  1   
1517 1866 1868  1   
1518 1866 1869  1   
1519 1870 1871  1   
1520 1871 1872  1   
1521 1871 1873  1   
1522 1871 1874  1   
1523 1875 1876  1   
1524 1876 1877  1   
1525 1876 1878  1   
1526 1876 1879  1   
1527 1880 1881  1   
1528 1881 1882  1   
1529 1881 1883  1   
1530 1881 1884  1   
1531 1885 1886  1   
1532 1886 1887  1   
1533 1886 1888  1   
1534 1886 1889  1   
1535 1890 1891  1   
1536 1891 1892  1   
1537 1891 1893  1   
1538 1891 1894  1   
1539 1895 1896  1   
1540 1896 1897  1   
1541 1896 1898  1   
1542 1896 1899  1   
1543 1900 1901  1   
1544 1901 1902  1   
1545 1901 1903  1   
1546 1901 1904  1   
1547 1905 1906  1   
1548 1906 1907  1   
1549 1906 1908  1   
1550 1906 1909  1   
1551 1910 1911  1   
1552 1911 1912  1   
1553 1911 1913  1   
1554 1911 1914  1   
1555 1915 1916  1   
1556 1916 1917  1   
1557 1916 1918  1   
1558 1916 1919  1   
1559 1920 1921  1   
1560 1921 1922  1   
1561 1921 1923  1   
1562 1921 1924  1   
1563 1925 1926  1   
1564 1926 1927  1   
1565 1926 1928  1   
1566 1926 1929  1   
1567 1930 1931  1   
1568 1931 1932  1   
1569 1931 1933  1   
1570 1931 1934  1   
1571 1935 1936  1   
1572 1936 1937  1   
1573 1936 1938  1   
1574 1936 1939  1   
1575 1940 1941  1   
1576 1941 1942  1   
1577 1941 1943  1   
1578 1941 1944  1   
1579 1945 1946  1   
1580 1946 1947  1   
1581 1946 1948  1   
1582 1946 1949  1   
1583 1950 1951  1   
1584 1951 1952  1   
1585 1951 1953  1   
1586 1951 1954  1   
1587 1955 1956  1   
1588 1956 1957  1   
1589 1956 1958  1   
1590 1956 1959  1   
1591 1960 1961  1   
1592 1961 1962  1   
1593 1961 1963  1   
1594 1961 1964  1   
1595 1965 1966  1   
1596 1966 1967  1   
1597 1966 1968  1   
1598 1966 1969  1   
1599 1970 1971  1   
1600 1971 1972  1   
1601 1971 1973  1   
1602 1971 1974  1   
1603 1975 1976  1   
1604 1976 1977  1   
1605 1976 1978  1   
1606 1976 1979  1   
1607 1980 1981  1   
1608 1981 1982  1   
1609 1981 1983  1   
1610 1981 1984  1   
1611 1985 1986  1   
1612 1986 1987  1   
1613 1986 1988  1   
1614 1986 1989  1   
1615 1990 1991  1   
1616 1991 1992  1   
1617 1991 1993  1   
1618 1991 1994  1   
1619 1995 1996  1   
1620 1996 1997  1   
1621 1996 1998  1   
1622 1996 1999  1   
1623 2000 2001  1   
1624 2001 2002  1   
1625 2001 2003  1   
1626 2001 2004  1   
1627 2005 2006  1   
1628 2006 2007  1   
1629 2006 2008  1   
1630 2006 2009  1   
1631 2010 2011  1   
1632 2011 2012  1   
1633 2011 2013  1   
1634 2011 2014  1   
1635 2015 2016  1   
1636 2016 2017  1   
1637 2016 2018  1   
1638 2016 2019  1   
1639 2020 2021  1   
1640 2021 2022  1   
1641 2021 2023  1   
1642 2021 2024  1   
1643 2025 2026  1   
1644 2026 2027  1   
1645 2026 2028  1   
1646 2026 2029  1   
1647 2030 2031  1   
1648 2031 2032  1   
1649 2031 2033  1   
1650 2031 2034  1   
1651 2035 2036  1   
1652 2036 2037  1   
1653 2036 2038  1   
1654 2036 2039  1   
1655 2040 2041  1   
1656 2041 2042  1   
1657 2041 2043  1   
1658 2041 2044  1   
1659 2045 2046  1   
1660 2046 2047  1   
1661 2046 2048  1   
1662 2046 2049  1   
1663 2050 2051  1   
1664 2051 2052  1   
1665 2051 2053  1   
1666 2051 2054  1   
1667 2055 2056  1   
1668 2056 2057  1   
1669 2056 2058  1   
1670 2056 2059  1   
1671 2060 2061  1   
1672 2061 2062  1   
1673 2061 2063  1   
1674 2061 2064  1   
1675 2065 2066  1   
1676 2066 2067  1   
1677 2066 2068  1   
1678 2066 2069  1   
1679 2070 2071  1   
1680 2071 2072  1   
1681 2071 2073  1   
1682 2071 2074  1   
1683 2075 2076  1   
1684 2076 2077  1   
1685 2076 2078  1   
1686 2076 2079  1   
1687 2080 2081  1   
1688 2081 2082  1   
1689 2081 2083  1   
1690 2081 2084  1   
1691 2085 2086  1   
1692 2086 2087  1   
1693 2086 2088  1   
1694 2086 2089  1   
1695 2090 2091  1   
1696 2091 2092  1   
1697 2091 2093  1   
1698 2091 2094  1   
1699 2095 2096  1   
1700 2096 2097  1   
1701 2096 2098  1   
1702 2096 2099  1   
1703 2100 2101  1   
1704 2101 2102  1   
1705 2101 2103  1   
1706 2101 2104  1   
1707 2105 2106  1   
1708 2106 2107  1   
1709 2106 2108  1   
1710 2106 2109  1   
1711 2110 2111  1   
1712 2111 2112  1   
1713 2111 2113  1   
1714 2111 2114  1   
1715 2115 2116  1   
1716 2116 2117  1   
1717 2116 2118  1   
1718 2116 2119  1   
1719 2120 2121  1   
1720 2121 2122  1   
1721 2121 2123  1   
1722 2121 2124  1   
1723 2125 2126  1   
1724 2126 2127  1   
1725 2126 2128  1   
1726 2126 2129  1   
1727 2130 2131  1   
1728 2131 2132  1   
1729 2131 2133  1   
1730 2131 2134  1   
1731 2135 2136  1   
1732 2136 2137  1   
1733 2136 2138  1   
1734 2136 2139  1   
1735 2140 2141  1   
1736 2141 2142  1   
1737 2141 2143  1   
1738 2141 2144  1   
1739 2145 2146  1   
1740 2146 2147  1   
1741 2146 2148  1   
1742 2146 2149  1   
1743 2150 2151  1   
1744 2151 2152  1   
1745 2151 2153  1   
1746 2151 2154  1   
1747 2155 2156  1   
1748 2156 2157  1   
1749 2156 2158  1   
1750 2156 2159  1   
1751 2160 2161  1   
1752 2161 2162  1   
1753 2161 2163  1   
1754 2161 2164  1   
1755 2165 2166  1   
1756 2166 2167  1   
1757 2166 2168  1   
1758 2166 2169  1   
1759 2170 2171  1   
1760 2171 2172  1   
1761 2171 2173  1   
1762 2171 2174  1   
1763 2175 2176  1   
1764 2176 2177  1   
1765 2176 2178  1   
1766 2176 2179  1   
1767 2180 2181  1   
1768 2181 2182  1   
1769 2181 2183  1   
1770 2181 2184  1   
1771 2185 2186  1   
1772 2186 2187  1   
1773 2186 2188  1   
1774 2186 2189  1   
1775 2190 2191  1   
1776 2191 2192  1   
1777 2191 2193  1   
1778 2191 2194  1   
1779 2195 2196  1   
1780 2196 2197  1   
1781 2196 2198  1   
1782 2196 2199  1   
1783 2200 2201  1   
1784 2201 2202  1   
1785 2201 2203  1   
1786 2201 2204  1   
1787 2205 2206  1   
1788 2206 2207  1   
1789 2206 2208  1   
1790 2206 2209  1   
1791 2210 2211  1   
1792 2211 2212  1   
1793 2211 2213  1   
1794 2211 2214  1   
1795 2215 2216  1   
1796 2216 2217  1   
1797 2216 2218  1   
1798 2216 2219  1   
1799 2220 2221  1   
1800 2221 2222  1   
1801 2221 2223  1   
1802 2221 2224  1   
1803 2225 2226  1   
1804 2226 2227  1   
1805 2226 2228  1   
1806 2226 2229  1   
1807 2230 2231  1   
1808 2231 2232  1   
1809 2231 2233  1   
1810 2231 2234  1   
1811 2235 2236  1   
1812 2236 2237  1   
1813 2236 2238  1   
1814 2236 2239  1   
1815 2240 2241  1   
1816 2241 2242  1   
1817 2241 2243  1   
1818 2241 2244  1   
1819 2245 2246  1   
1820 2246 2247  1   
1821 2246 2248  1   
1822 2246 2249  1   
1823 2250 2251  1   
1824 2251 2252  1   
1825 2251 2253  1   
1826 2251 2254  1   
1827 2255 2256  1   
1828 2256 2257  1   
1829 2256 2258  1   
1830 2256 2259  1   
1831 2260 2261  1   
1832 2261 2262  1   
1833 2261 2263  1   
1834 2261 2264  1   
1835 2265 2266  1   
1836 2266 2267  1   
1837 2266 2268  1   
1838 2266 2269  1   
1839 2270 2271  1   
1840 2271 2272  1   
1841 2271 2273  1   
1842 2271 2274  1   
1843 2275 2276  1   
1844 2276 2277  1   
1845 2276 2278  1   
1846 2276 2279  1   
1847 2280 2281  1   
1848 2281 2282  1   
1849 2281 2283  1   
1850 2281 2284  1   
1851 2285 2286  1   
1852 2286 2287  1   
1853 2286 2288  1   
1854 2286 2289  1   
1855 2290 2291  1   
1856 2291 2292  1   
1857 2291 2293  1   
1858 2291 2294  1   
1859 2295 2296  1   
1860 2296 2297  1   
1861 2296 2298  1   
1862 2296 2299  1   
1863 2300 2301  1   
1864 2301 2302  1   
1865 2301 2303  1   
1866 2301 2304  1   
1867 2305 2306  1   
1868 2306 2307  1   
1869 2306 2308  1   
1870 2306 2309  1   
1871 2310 2311  1   
1872 2311 2312  1   
1873 2311 2313  1   
1874 2311 2314  1   
1875 2315 2316  1   
1876 2316 2317  1   
1877 2316 2318  1   
1878 2316 2319  1   
1879 2320 2321  1   
1880 2321 2322  1   
1881 2321 2323  1   
1882 2321 2324  1   
1883 2325 2326  1   
1884 2326 2327  1   
1885 2326 2328  1   
1886 2326 2329  1   
1887 2330 2331  1   
1888 2331 2332  1   
1889 2331 2333  1   
1890 2331 2334  1   
1891 2335 2336  1   
1892 2336 2337  1   
1893 2336 2338  1   
1894 2336 2339  1   
1895 2340 2341  1   
1896 2341 2342  1   
1897 2341 2343  1   
1898 2341 2344  1   
1899 2345 2346  1   
1900 2346 2347  1   
1901 2346 2348  1   
1902 2346 2349  1   
1903 2350 2351  1   
1904 2351 2352  1   
1905 2351 2353  1   
1906 2351 2354  1   
1907 2355 2356  1   
1908 2356 2357  1   
1909 2356 2358  1   
1910 2356 2359  1   
1911 2360 2361  1   
1912 2361 2362  1   
1913 2361 2363  1   
1914 2361 2364  1   
1915 2365 2366  1   
1916 2366 2367  1   
1917 2366 2368  1   
1918 2366 2369  1   
1919 2370 2371  1   
1920 2371 2372  1   
1921 2371 2373  1   
1922 2371 2374  1   
1923 2375 2376  1   
1924 2376 2377  1   
1925 2376 2378  1   
1926 2376 2379  1   
1927 2380 2381  1   
1928 2381 2382  1   
1929 2381 2383  1   
1930 2381 2384  1   
1931 2385 2386  1   
1932 2386 2387  1   
1933 2386 2388  1   
1934 2386 2389  1   
1935 2390 2391  1   
1936 2391 2392  1   
1937 2391 2393  1   
1938 2391 2394  1   
1939 2395 2396  1   
1940 2396 2397  1   
1941 2396 2398  1   
1942 2396 2399  1   
1943 2400 2401  1   
1944 2401 2402  1   
1945 2401 2403  1   
1946 2401 2404  1   
1947 2405 2406  1   
1948 2406 2407  1   
1949 2406 2408  1   
1950 2406 2409  1   
1951 2410 2411  1   
1952 2411 2412  1   
1953 2411 2413  1   
1954 2411 2414  1   
1955 2415 2416  1   
1956 2416 2417  1   
1957 2416 2418  1   
1958 2416 2419  1   
1959 2420 2421  1   
1960 2421 2422  1   
1961 2421 2423  1   
1962 2421 2424  1   
1963 2425 2426  1   
1964 2426 2427  1   
1965 2426 2428  1   
1966 2426 2429  1   
1967 2430 2431  1   
1968 2431 2432  1   
1969 2431 2433  1   
1970 2431 2434  1   
1971 2435 2436  1   
1972 2436 2437  1   
1973 2436 2438  1   
1974 2436 2439  1   
1975 2440 2441  1   
1976 2441 2442  1   
1977 2441 2443  1   
1978 2441 2444  1   
1979 2445 2446  1   
1980 2446 2447  1   
1981 2446 2448  1   
1982 2446 2449  1   
1983 2450 2451  1   
1984 2451 2452  1   
1985 2451 2453  1   
1986 2451 2454  1   
1987 2455 2456  1   
1988 2456 2457  1   
1989 2456 2458  1   
1990 2456 2459  1   
1991 2460 2461  1   
1992 2461 2462  1   
1993 2461 2463  1   
1994 2461 2464  1   
1995 2465 2466  1   
1996 2466 2467  1   
1997 2466 2468  1   
1998 2466 2469  1   
1999 2470 2471  1   
2000 2471 2472  1   
2001 2471 2473  1   
2002 2471 2474  1   
2003 2475 2476  1   
2004 2476 2477  1   
2005 2476 2478  1   
2006 2476 2479  1   
2007 2480 2481  1   
2008 2481 2482  1   
2009 2481 2483  1   
2010 2481 2484  1   
2011 2485 2486  1   
2012 2486 2487  1   
2013 2486 2488  1   
2014 2486 2489  1   
2015 2490 2491  1   
2016 2491 2492  1   
2017 2491 2493  1   
2018 2491 2494  1   
2019 2495 2496  1   
2020 2496 2497  1   
2021 2496 2498  1   
2022 2496 2499  1   
2023 2500 2501  1   
2024 2501 2502  1   
2025 2501 2503  1   
2026 2501 2504  1   
2027 2505 2506  1   
2028 2506 2507  1   
2029 2506 2508  1   
2030 2506 2509  1   
2031 2510 2511  1   
2032 2511 2512  1   
2033 2511 2513  1   
2034 2511 2514  1   
2035 2515 2516  1   
2036 2516 2517  1   
2037 2516 2518  1   
2038 2516 2519  1   
2039 2520 2521  1   
2040 2521 2522  1   
2041 2521 2523  1   
2042 2521 2524  1   
2043 2525 2526  1   
2044 2526 2527  1   
2045 2526 2528  1   
2046 2526 2529  1   
2047 2530 2531  1   
2048 2531 2532  1   
2049 2531 2533  1   
2050 2531 2534  1   
2051 2535 2536  1   
2052 2536 2537  1   
2053 2536 2538  1   
2054 2536 2539  1   
2055 2540 2541  1   
2056 2541 2542  1   
2057 2541 2543  1   
2058 2541 2544  1   
2059 2545 2546  1   
2060 2546 2547  1   
2061 2546 2548  1   
2062 2546 2549  1   
2063 2550 2551  1   
2064 2551 2552  1   
2065 2551 2553  1   
2066 2551 2554  1   
2067 2555 2556  1   
2068 2556 2557  1   
2069 2556 2558  1   
2070 2556 2559  1   
2071 2560 2561  1   
2072 2561 2562  1   
2073 2561 2563  1   
2074 2561 2564  1   
2075 2565 2566  1   
2076 2566 2567  1   
2077 2566 2568  1   
2078 2566 2569  1   
2079 2570 2571  1   
2080 2571 2572  1   
2081 2571 2573  1   
2082 2571 2574  1   
2083 2575 2576  1   
2084 2576 2577  1   
2085 2576 2578  1   
2086 2576 2579  1   
2087 2580 2581  1   
2088 2581 2582  1   
2089 2581 2583  1   
2090 2581 2584  1   
2091 2585 2586  1   
2092 2586 2587  1   
2093 2586 2588  1   
2094 2586 2589  1   
2095 2590 2591  1   
2096 2591 2592  1   
2097 2591 2593  1   
2098 2591 2594  1   
2099 2595 2596  1   
2100 2596 2597  1   
2101 2596 2598  1   
2102 2596 2599  1   
2103 2600 2601  1   
2104 2601 2602  1   
2105 2601 2603  1   
2106 2601 2604  1   
2107 2605 2606  1   
2108 2606 2607  1   
2109 2606 2608  1   
2110 2606 2609  1   
2111 2610 2611  1   
2112 2611 2612  1   
2113 2611 2613  1   
2114 2611 2614  1   
2115 2615 2616  1   
2116 2616 2617  1   
2117 2616 2618  1   
2118 2616 2619  1   
2119 2620 2621  1   
2120 2621 2622  1   
2121 2621 2623  1   
2122 2621 2624  1   
2123 2625 2626  1   
2124 2626 2627  1   
2125 2626 2628  1   
2126 2626 2629  1   
2127 2630 2631  1   
2128 2631 2632  1   
2129 2631 2633  1   
2130 2631 2634  1   
2131 2635 2636  1   
2132 2636 2637  1   
2133 2636 2638  1   
2134 2636 2639  1   
2135 2640 2641  1   
2136 2641 2642  1   
2137 2641 2643  1   
2138 2641 2644  1   
2139 2645 2646  1   
2140 2646 2647  1   
2141 2646 2648  1   
2142 2646 2649  1   
2143 2650 2651  1   
2144 2651 2652  1   
2145 2651 2653  1   
2146 2651 2654  1   
2147 2655 2656  1   
2148 2656 2657  1   
2149 2656 2658  1   
2150 2656 2659  1   
2151 2660 2661  1   
2152 2661 2662  1   
2153 2661 2663  1   
2154 2661 2664  1   
2155 2665 2666  1   
2156 2666 2667  1   
2157 2666 2668  1   
2158 2666 2669  1   
2159 2670 2671  1   
2160 2671 2672  1   
2161 2671 2673  1   
2162 2671 2674  1   
2163 2675 2676  1   
2164 2676 2677  1   
2165 2676 2678  1   
2166 2676 2679  1   
2167 2680 2681  1   
2168 2681 2682  1   
2169 2681 2683  1   
2170 2681 2684  1   
2171 2685 2686  1   
2172 2686 2687  1   
2173 2686 2688  1   
2174 2686 2689  1   
2175 2690 2691  1   
2176 2691 2692  1   
2177 2691 2693  1   
2178 2691 2694  1   
2179 2695 2696  1   
2180 2696 2697  1   
2181 2696 2698  1   
2182 2696 2699  1   
2183 2700 2701  1   
2184 2701 2702  1   
2185 2701 2703  1   
2186 2701 2704  1   
2187 2705 2706  1   
2188 2706 2707  1   
2189 2706 2708  1   
2190 2706 2709  1   
2191 2710 2711  1   
2192 2711 2712  1   
2193 2711 2713  1   
2194 2711 2714  1   
2195 2715 2716  1   
2196 2716 2717  1   
2197 2716 2718  1   
2198 2716 2719  1   
2199 2720 2721  1   
2200 2721 2722  1   
2201 2721 2723  1   
2202 2721 2724  1   
2203 2725 2726  1   
2204 2726 2727  1   
2205 2726 2728  1   
2206 2726 2729  1   
2207 2730 2731  1   
2208 2731 2732  1   
2209 2731 2733  1   
2210 2731 2734  1   
2211 2735 2736  1   
2212 2736 2737  1   
2213 2736 2738  1   
2214 2736 2739  1   
2215 2740 2741  1   
2216 2741 2742  1   
2217 2741 2743  1   
2218 2741 2744  1   
2219 2745 2746  1   
2220 2746 2747  1   
2221 2746 2748  1   
2222 2746 2749  1   
2223 2750 2751  1   
2224 2751 2752  1   
2225 2751 2753  1   
2226 2751 2754  1   
2227 2755 2756  1   
2228 2756 2757  1   
2229 2756 2758  1   
2230 2756 2759  1   
2231 2760 2761  1   
2232 2761 2762  1   
2233 2761 2763  1   
2234 2761 2764  1   
2235 2765 2766  1   
2236 2766 2767  1   
2237 2766 2768  1   
2238 2766 2769  1   
2239 2770 2771  1   
2240 2771 2772  1   
2241 2771 2773  1   
2242 2771 2774  1   
2243 2775 2776  1   
2244 2776 2777  1   
2245 2776 2778  1   
2246 2776 2779  1   
2247 2780 2781  1   
2248 2781 2782  1   
2249 2781 2783  1   
2250 2781 2784  1   
2251 2785 2786  1   
2252 2786 2787  1   
2253 2786 2788  1   
2254 2786 2789  1   
2255 2790 2791  1   
2256 2791 2792  1   
2257 2791 2793  1   
2258 2791 2794  1   
2259 2795 2796  1   
2260 2796 2797  1   
2261 2796 2798  1   
2262 2796 2799  1   
2263 2800 2801  1   
2264 2801 2802  1   
2265 2801 2803  1   
2266 2801 2804  1   
2267 2805 2806  1   
2268 2806 2807  1   
2269 2806 2808  1   
2270 2806 2809  1   
2271 2810 2811  1   
2272 2811 2812  1   
2273 2811 2813  1   
2274 2811 2814  1   
2275 2815 2816  1   
2276 2816 2817  1   
2277 2816 2818  1   
2278 2816 2819  1   
2279 2820 2821  1   
2280 2821 2822  1   
2281 2821 2823  1   
2282 2821 2824  1   
2283 2825 2826  1   
2284 2826 2827  1   
2285 2826 2828  1   
2286 2826 2829  1   
2287 2830 2831  1   
2288 2831 2832  1   
2289 2831 2833  1   
2290 2831 2834  1   
2291 2835 2836  1   
2292 2836 2837  1   
2293 2836 2838  1   
2294 2836 2839  1   
2295 2840 2841  1   
2296 2841 2842  1   
2297 2841 2843  1   
2298 2841 2844  1   
2299 2845 2846  1   
2300 2846 2847  1   
2301 2846 2848  1   
2302 2846 2849  1   
2303 2850 2851  1   
2304 2851 2852  1   
2305 2851 2853  1   
2306 2851 2854  1   
2307 2855 2856  1   
2308 2856 2857  1   
2309 2856 2858  1   
2310 2856 2859  1   
2311 2860 2861  1   
2312 2861 2862  1   
2313 2861 2863  1   
2314 2861 2864  1   
2315 2865 2866  1   
2316 2866 2867  1   
2317 2866 2868  1   
2318 2866 2869  1   
2319 2870 2871  1   
2320 2871 2872  1   
2321 2871 2873  1   
2322 2871 2874  1   
2323 2875 2876  1   
2324 2876 2877  1   
2325 2876 2878  1   
2326 2876 2879  1   
2327 2880 2881  1   
2328 2881 2882  1   
2329 2881 2883  1   
2330 2881 2884  1   
2331 2885 2886  1   
2332 2886 2887  1   
2333 2886 2888  1   
2334 2886 2889  1   
2335 2890 2891  1   
2336 2891 2892  1   
2337 2891 2893  1   
2338 2891 2894  1   
2339 2895 2896  1   
2340 2896 2897  1   
2341 2896 2898  1   
2342 2896 2899  1   
2343 2900 2901  1   
2344 2901 2902  1   
2345 2901 2903  1   
2346 2901 2904  1   
2347 2905 2906  1   
2348 2906 2907  1   
2349 2906 2908  1   
2350 2906 2909  1   
2351 2910 2911  1   
2352 2911 2912  1   
2353 2911 2913  1   
2354 2911 2914  1   
2355 2915 2916  1   
2356 2916 2917  1   
2357 2916 2918  1   
2358 2916 2919  1   
2359 2920 2921  1   
2360 2921 2922  1   
2361 2921 2923  1   
2362 2921 2924  1   
2363 2925 2926  1   
2364 2926 2927  1   
2365 2926 2928  1   
2366 2926 2929  1   
2367 2930 2931  1   
2368 2931 2932  1   
2369 2931 2933  1   
2370 2931 2934  1   
2371 2935 2936  1   
2372 2936 2937  1   
2373 2936 2938  1   
2374 2936 2939  1   
2375 2940 2941  1   
2376 2941 2942  1   
2377 2941 2943  1   
2378 2941 2944  1   
2379 2945 2946  1   
2380 2946 2947  1   
2381 2946 2948  1   
2382 2946 2949  1   
2383 2950 2951  1   
2384 2951 2952  1   
2385 2951 2953  1   
2386 2951 2954  1   
2387 2955 2956  1   
2388 2956 2957  1   
2389 2956 2958  1   
2390 2956 2959  1   
2391 2960 2961  1   
2392 2961 2962  1   
2393 2961 2963  1   
2394 2961 2964  1   
2395 2965 2966  1   
2396 2966 2967  1   
2397 2966 2968  1   
2398 2966 2969  1   
2399 2970 2971  1   
2400 2971 2972  1   
2401 2971 2973  1   
2402 2971 2974  1   
2403 2975 2976  1   
2404 2976 2977  1   
2405 2976 2978  1   
2406 2976 2979  1   
2407 2980 2981  1   
2408 2981 2982  1   
2409 2981 2983  1   
2410 2981 2984  1   
2411 2985 2986  1   
2412 2986 2987  1   
2413 2986 2988  1   
2414 2986 2989  1   
2415 2990 2991  1   
2416 2991 2992  1   
2417 2991 2993  1   
2418 2991 2994  1   
2419 2995 2996  1   
2420 2996 2997  1   
2421 2996 2998  1   
2422 2996 2999  1   
2423 3000 3001  1   
2424 3001 3002  1   
2425 3001 3003  1   
2426 3001 3004  1   
2427 3005 3006  1   
2428 3006 3007  1   
2429 3006 3008  1   
2430 3006 3009  1   
2431 3010 3011  1   
2432 3011 3012  1   
2433 3011 3013  1   
2434 3011 3014  1   
@<TRIPOS>SUBSTRUCTURE
  1 ****   24 GROUP 4 Q1 **** 0
  2 CCL4  111 GROUP 4 Q2 **** 0
  3 CCL4  116 GROUP 4 Q2 **** 0
  4 CCL4  121 GROUP 4 Q2 **** 0
  5 CCL4  126 GROUP 4 Q2 **** 0
  6 CCL4  131 GROUP 4 Q2 **** 0
  7 CCL4  136 GROUP 4 Q2 **** 0
  8 CCL4  141 GROUP 4 Q2 **** 0
  9 CCL4  146 GROUP 4 Q2 **** 0
 10 CCL4  151 GROUP 4 Q2 **** 0
 11 CCL4  156 GROUP 4 Q2 **** 0
 12 CCL4  161 GROUP 4 Q2 **** 0
 13 CCL4  166 GROUP 4 Q2 **** 0
 14 CCL4  171 GROUP 4 Q2 **** 0
 15 CCL4  176 GROUP 4 Q2 **** 0
 16 CCL4  181 GROUP 4 Q2 **** 0
 17 CCL4  186 GROUP 4 Q2 **** 0
 18 CCL4  191 GROUP 4 Q2 **** 0
 19 CCL4  196 GROUP 4 Q2 **** 0
 20 CCL4  201 GROUP 4 Q2 **** 0
 21 CCL4  206 GROUP 4 Q2 **** 0
 22 CCL4  211 GROUP 4 Q2 **** 0
 23 CCL4  216 GROUP 4 Q2 **** 0
 24 CCL4  221 GROUP 4 Q2 **** 0
 25 CCL4  226 GROUP 4 Q2 **** 0
 26 CCL4  231 GROUP 4 Q2 **** 0
 27 CCL4  236 GROUP 4 Q2 **** 0
 28 CCL4  241 GROUP 4 Q2 **** 0
 29 CCL4  246 GROUP 4 Q2 **** 0
 30 CCL4  251 GROUP 4 Q2 **** 0
 31 CCL4  256 GROUP 4 Q2 **** 0
 32 CCL4  261 GROUP 4 Q2 **** 0
 33 CCL4  266 GROUP 4 Q2 **** 0
 34 CCL4  271 GROUP 4 Q2 **** 0
 35 CCL4  276 GROUP 4 Q2 **** 0
 36 CCL4  281 GROUP 4 Q2 **** 0
 37 CCL4  286 GROUP 4 Q2 **** 0
 38 CCL4  291 GROUP 4 Q2 **** 0
 39 CCL4  296 GROUP 4 Q2 **** 0
 40 CCL4  301 GROUP 4 Q2 **** 0
 41 CCL4  306 GROUP 4 Q2 **** 0
 42 CCL4  311 GROUP 4 Q2 **** 0
 43 CCL4  316 GROUP 4 Q2 **** 0
 44 CCL4  321 GROUP 4 Q2 **** 0
 45 CCL4  326 GROUP 4 Q2 **** 0
 46 CCL4  331 GROUP 4 Q2 **** 0
 47 CCL4  336 GROUP 4 Q2 **** 0
 48 CCL4  341 GROUP 4 Q2 **** 0
 49 CCL4  346 GROUP 4 Q2 **** 0
 50 CCL4  351 GROUP 4 Q2 **** 0
 51 CCL4  356 GROUP 4 Q2 **** 0
 52 CCL4  361 GROUP 4 Q2 **** 0
 53 CCL4  366 GROUP 4 Q2 **** 0
 54 CCL4  371 GROUP 4 Q2 **** 0
 55 CCL4  376 GROUP 4 Q2 **** 0
 56 CCL4  381 GROUP 4 Q2 **** 0
 57 CCL4  386 GROUP 4 Q2 **** 0
 58 CCL4  391 GROUP 4 Q2 **** 0
 59 CCL4  396 GROUP 4 Q2 **** 0
 60 CCL4  401 GROUP 4 Q2 **** 0
 61 CCL4  406 GROUP 4 Q2 **** 0
 62 CCL4  411 GROUP 4 Q2 **** 0
 63 CCL4  416 GROUP 4 Q2 **** 0
 64 CCL4  421 GROUP 4 Q2 **** 0
 65 CCL4  426 GROUP 4 Q2 **** 0
 66 CCL4  431 GROUP 4 Q2 **** 0
 67 CCL4  436 GROUP 4 Q2 **** 0
 68 CCL4  441 GROUP 4 Q2 **** 0
 69 CCL4  446 GROUP 4 Q2 **** 0
 70 CCL4  451 GROUP 4 Q2 **** 0
 71 CCL4  456 GROUP 4 Q2 **** 0
 72 CCL4  461 GROUP 4 Q2 **** 0
 73 CCL4  466 GROUP 4 Q2 **** 0
 74 CCL4  471 GROUP 4 Q2 **** 0
 75 CCL4  476 GROUP 4 Q2 **** 0
 76 CCL4  481 GROUP 4 Q2 **** 0
 77 CCL4  486 GROUP 4 Q2 **** 0
 78 CCL4  491 GROUP 4 Q2 **** 0
 79 CCL4  496 GROUP 4 Q2 **** 0
 80 CCL4  501 GROUP 4 Q2 **** 0
 81 CCL4  506 GROUP 4 Q2 **** 0
 82 CCL4  511 GROUP 4 Q2 **** 0
 83 CCL4  516 GROUP 4 Q2 **** 0
 84 CCL4  521 GROUP 4 Q2 **** 0
 85 CCL4  526 GROUP 4 Q2 **** 0
 86 CCL4  531 GROUP 4 Q2 **** 0
 87 CCL4  536 GROUP 4 Q2 **** 0
 88 CCL4  541 GROUP 4 Q2 **** 0
 89 CCL4  546 GROUP 4 Q2 **** 0
 90 CCL4  551 GROUP 4 Q2 **** 0
 91 CCL4  556 GROUP 4 Q2 **** 0
 92 CCL4  561 GROUP 4 Q2 **** 0
 93 CCL4  566 GROUP 4 Q2 **** 0
 94 CCL4  571 GROUP 4 Q2 **** 0
 95 CCL4  576 GROUP 4 Q2 **** 0
 96 CCL4  581 GROUP 4 Q2 **** 0
 97 CCL4  586 GROUP 4 Q2 **** 0
 98 CCL4  591 GROUP 4 Q2 **** 0
 99 CCL4  596 GROUP 4 Q2 **** 0
100 CCL4  601 GROUP 4 Q2 **** 0
101 CCL4  606 GROUP 4 Q2 **** 0
102 CCL4  611 GROUP 4 Q2 **** 0
103 CCL4  616 GROUP 4 Q2 **** 0
104 CCL4  621 GROUP 4 Q2 **** 0
105 CCL4  626 GROUP 4 Q2 **** 0
106 CCL4  631 GROUP 4 Q2 **** 0
107 CCL4  636 GROUP 4 Q2 **** 0
108 CCL4  641 GROUP 4 Q2 **** 0
109 CCL4  646 GROUP 4 Q2 **** 0
110 CCL4  651 GROUP 4 Q2 **** 0
111 CCL4  656 GROUP 4 Q2 **** 0
112 CCL4  661 GROUP 4 Q2 **** 0
113 CCL4  666 GROUP 4 Q2 **** 0
114 CCL4  671 GROUP 4 Q2 **** 0
115 CCL4  676 GROUP 4 Q2 **** 0
116 CCL4  681 GROUP 4 Q2 **** 0
117 CCL4  686 GROUP 4 Q2 **** 0
118 CCL4  691 GROUP 4 Q2 **** 0
119 CCL4  696 GROUP 4 Q2 **** 0
120 CCL4  701 GROUP 4 Q2 **** 0
121 CCL4  706 GROUP 4 Q2 **** 0
122 CCL4  711 GROUP 4 Q2 **** 0
123 CCL4  716 GROUP 4 Q2 **** 0
124 CCL4  721 GROUP 4 Q2 **** 0
125 CCL4  726 GROUP 4 Q2 **** 0
126 CCL4  731 GROUP 4 Q2 **** 0
127 CCL4  736 GROUP 4 Q2 **** 0
128 CCL4  741 GROUP 4 Q2 **** 0
129 CCL4  746 GROUP 4 Q2 **** 0
130 CCL4  751 GROUP 4 Q2 **** 0
131 CCL4  756 GROUP 4 Q2 **** 0
132 CCL4  761 GROUP 4 Q2 **** 0
133 CCL4  766 GROUP 4 Q2 **** 0
134 CCL4  771 GROUP 4 Q2 **** 0
135 CCL4  776 GROUP 4 Q2 **** 0
136 CCL4  781 GROUP 4 Q2 **** 0
137 CCL4  786 GROUP 4 Q2 **** 0
138 CCL4  791 GROUP 4 Q2 **** 0
139 CCL4  796 GROUP 4 Q2 **** 0
140 CCL4  801 GROUP 4 Q2 **** 0
141 CCL4  806 GROUP 4 Q2 **** 0
142 CCL4  811 GROUP 4 Q2 **** 0
143 CCL4  816 GROUP 4 Q2 **** 0
144 CCL4  821 GROUP 4 Q2 **** 0
145 CCL4  826 GROUP 4 Q2 **** 0
146 CCL4  831 GROUP 4 Q2 **** 0
147 CCL4  836 GROUP 4 Q2 **** 0
148 CCL4  841 GROUP 4 Q2 **** 0
149 CCL4  846 GROUP 4 Q2 **** 0
150 CCL4  851 GROUP 4 Q2 **** 0
151 CCL4  856 GROUP 4 Q2 **** 0
152 CCL4  861 GROUP 4 Q2 **** 0
153 CCL4  866 GROUP 4 Q2 **** 0
154 CCL4  871 GROUP 4 Q2 **** 0
155 CCL4  876 GROUP 4 Q2 **** 0
156 CCL4  881 GROUP 4 Q2 **** 0
157 CCL4  886 GROUP 4 Q2 **** 0
158 CCL4  891 GROUP 4 Q2 **** 0
159 CCL4  896 GROUP 4 Q2 **** 0
160 CCL4  901 GROUP 4 Q2 **** 0
161 CCL4  906 GROUP 4 Q2 **** 0
162 CCL4  911 GROUP 4 Q2 **** 0
163 CCL4  916 GROUP 4 Q2 **** 0
164 CCL4  921 GROUP 4 Q2 **** 0
165 CCL4  926 GROUP 4 Q2 **** 0
166 CCL4  931 GROUP 4 Q2 **** 0
167 CCL4  936 GROUP 4 Q2 **** 0
168 CCL4  941 GROUP 4 Q2 **** 0
169 CCL4  946 GROUP 4 Q2 **** 0
170 CCL4  951 GROUP 4 Q2 **** 0
171 CCL4  956 GROUP 4 Q2 **** 0
172 CCL4  961 GROUP 4 Q2 **** 0
173 CCL4  966 GROUP 4 Q2 **** 0
174 CCL4  971 GROUP 4 Q2 **** 0
175 CCL4  976 GROUP 4 Q2 **** 0
176 CCL4  981 GROUP 4 Q2 **** 0
177 CCL4  986 GROUP 4 Q2 **** 0
178 CCL4  991 GROUP 4 Q2 **** 0
179 CCL4  996 GROUP 4 Q2 **** 0
180 CCL4 1001 GROUP 4 Q2 **** 0
181 CCL4 1006 GROUP 4 Q2 **** 0
182 CCL4 1011 GROUP 4 Q2 **** 0
183 CCL4 1016 GROUP 4 Q2 **** 0
184 CCL4 1021 GROUP 4 Q2 **** 0
185 CCL4 1026 GROUP 4 Q2 **** 0
186 CCL4 1031 GROUP 4 Q2 **** 0
187 CCL4 1036 GROUP 4 Q2 **** 0
188 CCL4 1041 GROUP 4 Q2 **** 0
189 CCL4 1046 GROUP 4 Q2 **** 0
190 CCL4 1051 GROUP 4 Q2 **** 0
191 CCL4 1056 GROUP 4 Q2 **** 0
192 CCL4 1061 GROUP 4 Q2 **** 0
193 CCL4 1066 GROUP 4 Q2 **** 0
194 CCL4 1071 GROUP 4 Q2 **** 0
195 CCL4 1076 GROUP 4 Q2 **** 0
196 CCL4 1081 GROUP 4 Q2 **** 0
197 CCL4 1086 GROUP 4 Q2 **** 0
198 CCL4 1091 GROUP 4 Q2 **** 0
199 CCL4 1096 GROUP 4 Q2 **** 0
200 CCL4 1101 GROUP 4 Q2 **** 0
201 CCL4 1106 GROUP 4 Q2 **** 0
202 CCL4 1111 GROUP 4 Q2 **** 0
203 CCL4 1116 GROUP 4 Q2 **** 0
204 CCL4 1121 GROUP 4 Q2 **** 0
205 CCL4 1126 GROUP 4 Q2 **** 0
206 CCL4 1131 GROUP 4 Q2 **** 0
207 CCL4 1136 GROUP 4 Q2 **** 0
208 CCL4 1141 GROUP 4 Q2 **** 0
209 CCL4 1146 GROUP 4 Q2 **** 0
210 CCL4 1151 GROUP 4 Q2 **** 0
211 CCL4 1156 GROUP 4 Q2 **** 0
212 CCL4 1161 GROUP 4 Q2 **** 0
213 CCL4 1166 GROUP 4 Q2 **** 0
214 CCL4 1171 GROUP 4 Q2 **** 0
215 CCL4 1176 GROUP 4 Q2 **** 0
216 CCL4 1181 GROUP 4 Q2 **** 0
217 CCL4 1186 GROUP 4 Q2 **** 0
218 CCL4 1191 GROUP 4 Q2 **** 0
219 CCL4 1196 GROUP 4 Q2 **** 0
220 CCL4 1201 GROUP 4 Q2 **** 0
221 CCL4 1206 GROUP 4 Q2 **** 0
222 CCL4 1211 GROUP 4 Q2 **** 0
223 CCL4 1216 GROUP 4 Q2 **** 0
224 CCL4 1221 GROUP 4 Q2 **** 0
225 CCL4 1226 GROUP 4 Q2 **** 0
226 CCL4 1231 GROUP 4 Q2 **** 0
227 CCL4 1236 GROUP 4 Q2 **** 0
228 CCL4 1241 GROUP 4 Q2 **** 0
229 CCL4 1246 GROUP 4 Q2 **** 0
230 CCL4 1251 GROUP 4 Q2 **** 0
231 CCL4 1256 GROUP 4 Q2 **** 0
232 CCL4 1261 GROUP 4 Q2 **** 0
233 CCL4 1266 GROUP 4 Q2 **** 0
234 CCL4 1271 GROUP 4 Q2 **** 0
235 CCL4 1276 GROUP 4 Q2 **** 0
236 CCL4 1281 GROUP 4 Q2 **** 0
237 CCL4 1286 GROUP 4 Q2 **** 0
238 CCL4 1291 GROUP 4 Q2 **** 0
239 CCL4 1296 GROUP 4 Q2 **** 0
240 CCL4 1301 GROUP 4 Q2 **** 0
241 CCL4 1306 GROUP 4 Q2 **** 0
242 CCL4 1311 GROUP 4 Q2 **** 0
243 CCL4 1316 GROUP 4 Q2 **** 0
244 CCL4 1321 GROUP 4 Q2 **** 0
245 CCL4 1326 GROUP 4 Q2 **** 0
246 CCL4 1331 GROUP 4 Q2 **** 0
247 CCL4 1336 GROUP 4 Q2 **** 0
248 CCL4 1341 GROUP 4 Q2 **** 0
249 CCL4 1346 GROUP 4 Q2 **** 0
250 CCL4 1351 GROUP 4 Q2 **** 0
251 CCL4 1356 GROUP 4 Q2 **** 0
252 CCL4 1361 GROUP 4 Q2 **** 0
253 CCL4 1366 GROUP 4 Q2 **** 0
254 CCL4 1371 GROUP 4 Q2 **** 0
255 CCL4 1376 GROUP 4 Q2 **** 0
256 CCL4 1381 GROUP 4 Q2 **** 0
257 CCL4 1386 GROUP 4 Q2 **** 0
258 CCL4 1391 GROUP 4 Q2 **** 0
259 CCL4 1396 GROUP 4 Q2 **** 0
260 CCL4 1401 GROUP 4 Q2 **** 0
261 CCL4 1406 GROUP 4 Q2 **** 0
262 CCL4 1411 GROUP 4 Q2 **** 0
263 CCL4 1416 GROUP 4 Q2 **** 0
264 CCL4 1421 GROUP 4 Q2 **** 0
265 CCL4 1426 GROUP 4 Q2 **** 0
266 CCL4 1431 GROUP 4 Q2 **** 0
267 CCL4 1436 GROUP 4 Q2 **** 0
268 CCL4 1441 GROUP 4 Q2 **** 0
269 CCL4 1446 GROUP 4 Q2 **** 0
270 CCL4 1451 GROUP 4 Q2 **** 0
271 CCL4 1456 GROUP 4 Q2 **** 0
272 CCL4 1461 GROUP 4 Q2 **** 0
273 CCL4 1466 GROUP 4 Q2 **** 0
274 CCL4 1471 GROUP 4 Q2 **** 0
275 CCL4 1476 GROUP 4 Q2 **** 0
276 CCL4 1481 GROUP 4 Q2 **** 0
277 CCL4 1486 GROUP 4 Q2 **** 0
278 CCL4 1491 GROUP 4 Q2 **** 0
279 CCL4 1496 GROUP 4 Q2 **** 0
280 CCL4 1501 GROUP 4 Q2 **** 0
281 CCL4 1506 GROUP 4 Q2 **** 0
282 CCL4 1511 GROUP 4 Q2 **** 0
283 CCL4 1516 GROUP 4 Q2 **** 0
284 CCL4 1521 GROUP 4 Q2 **** 0
285 CCL4 1526 GROUP 4 Q2 **** 0
286 CCL4 1531 GROUP 4 Q2 **** 0
287 CCL4 1536 GROUP 4 Q2 **** 0
288 CCL4 1541 GROUP 4 Q2 **** 0
289 CCL4 1546 GROUP 4 Q2 **** 0
290 CCL4 1551 GROUP 4 Q2 **** 0
291 CCL4 1556 GROUP 4 Q2 **** 0
292 CCL4 1561 GROUP 4 Q2 **** 0
293 CCL4 1566 GROUP 4 Q2 **** 0
294 CCL4 1571 GROUP 4 Q2 **** 0
295 CCL4 1576 GROUP 4 Q2 **** 0
296 CCL4 1581 GROUP 4 Q2 **** 0
297 CCL4 1586 GROUP 4 Q2 **** 0
298 CCL4 1591 GROUP 4 Q2 **** 0
299 CCL4 1596 GROUP 4 Q2 **** 0
300 CCL4 1601 GROUP 4 Q2 **** 0
301 CCL4 1606 GROUP 4 Q2 **** 0
302 CCL4 1611 GROUP 4 Q2 **** 0
303 CCL4 1616 GROUP 4 Q2 **** 0
304 CCL4 1621 GROUP 4 Q2 **** 0
305 CCL4 1626 GROUP 4 Q2 **** 0
306 CCL4 1631 GROUP 4 Q2 **** 0
307 CCL4 1636 GROUP 4 Q2 **** 0
308 CCL4 1641 GROUP 4 Q2 **** 0
309 CCL4 1646 GROUP 4 Q2 **** 0
310 CCL4 1651 GROUP 4 Q2 **** 0
311 CCL4 1656 GROUP 4 Q2 **** 0
312 CCL4 1661 GROUP 4 Q2 **** 0
313 CCL4 1666 GROUP 4 Q2 **** 0
314 CCL4 1671 GROUP 4 Q2 **** 0
315 CCL4 1676 GROUP 4 Q2 **** 0
316 CCL4 1681 GROUP 4 Q2 **** 0
317 CCL4 1686 GROUP 4 Q2 **** 0
318 CCL4 1691 GROUP 4 Q2 **** 0
319 CCL4 1696 GROUP 4 Q2 **** 0
320 CCL4 1701 GROUP 4 Q2 **** 0
321 CCL4 1706 GROUP 4 Q2 **** 0
322 CCL4 1711 GROUP 4 Q2 **** 0
323 CCL4 1716 GROUP 4 Q2 **** 0
324 CCL4 1721 GROUP 4 Q2 **** 0
325 CCL4 1726 GROUP 4 Q2 **** 0
326 CCL4 1731 GROUP 4 Q2 **** 0
327 CCL4 1736 GROUP 4 Q2 **** 0
328 CCL4 1741 GROUP 4 Q2 **** 0
329 CCL4 1746 GROUP 4 Q2 **** 0
330 CCL4 1751 GROUP 4 Q2 **** 0
331 CCL4 1756 GROUP 4 Q2 **** 0
332 CCL4 1761 GROUP 4 Q2 **** 0
333 CCL4 1766 GROUP 4 Q2 **** 0
334 CCL4 1771 GROUP 4 Q2 **** 0
335 CCL4 1776 GROUP 4 Q2 **** 0
336 CCL4 1781 GROUP 4 Q2 **** 0
337 CCL4 1786 GROUP 4 Q2 **** 0
338 CCL4 1791 GROUP 4 Q2 **** 0
339 CCL4 1796 GROUP 4 Q2 **** 0
340 CCL4 1801 GROUP 4 Q2 **** 0
341 CCL4 1806 GROUP 4 Q2 **** 0
342 CCL4 1811 GROUP 4 Q2 **** 0
343 CCL4 1816 GROUP 4 Q2 **** 0
344 CCL4 1821 GROUP 4 Q2 **** 0
345 CCL4 1826 GROUP 4 Q2 **** 0
346 CCL4 1831 GROUP 4 Q2 **** 0
347 CCL4 1836 GROUP 4 Q2 **** 0
348 CCL4 1841 GROUP 4 Q2 **** 0
349 CCL4 1846 GROUP 4 Q2 **** 0
350 CCL4 1851 GROUP 4 Q2 **** 0
351 CCL4 1856 GROUP 4 Q2 **** 0
352 CCL4 1861 GROUP 4 Q2 **** 0
353 CCL4 1866 GROUP 4 Q2 **** 0
354 CCL4 1871 GROUP 4 Q2 **** 0
355 CCL4 1876 GROUP 4 Q2 **** 0
356 CCL4 1881 GROUP 4 Q2 **** 0
357 CCL4 1886 GROUP 4 Q2 **** 0
358 CCL4 1891 GROUP 4 Q2 **** 0
359 CCL4 1896 GROUP 4 Q2 **** 0
360 CCL4 1901 GROUP 4 Q2 **** 0
361 CCL4 1906 GROUP 4 Q2 **** 0
362 CCL4 1911 GROUP 4 Q2 **** 0
363 CCL4 1916 GROUP 4 Q2 **** 0
364 CCL4 1921 GROUP 4 Q2 **** 0
365 CCL4 1926 GROUP 4 Q2 **** 0
366 CCL4 1931 GROUP 4 Q2 **** 0
367 CCL4 1936 GROUP 4 Q2 **** 0
368 CCL4 1941 GROUP 4 Q2 **** 0
369 CCL4 1946 GROUP 4 Q2 **** 0
370 CCL4 1951 GROUP 4 Q2 **** 0
371 CCL4 1956 GROUP 4 Q2 **** 0
372 CCL4 1961 GROUP 4 Q2 **** 0
373 CCL4 1966 GROUP 4 Q2 **** 0
374 CCL4 1971 GROUP 4 Q2 **** 0
375 CCL4 1976 GROUP 4 Q2 **** 0
376 CCL4 1981 GROUP 4 Q2 **** 0
377 CCL4 1986 GROUP 4 Q2 **** 0
378 CCL4 1991 GROUP 4 Q2 **** 0
379 CCL4 1996 GROUP 4 Q2 **** 0
380 CCL4 2001 GROUP 4 Q2 **** 0
381 CCL4 2006 GROUP 4 Q2 **** 0
382 CCL4 2011 GROUP 4 Q2 **** 0
383 CCL4 2016 GROUP 4 Q2 **** 0
384 CCL4 2021 GROUP 4 Q2 **** 0
385 CCL4 2026 GROUP 4 Q2 **** 0
386 CCL4 2031 GROUP 4 Q2 **** 0
387 CCL4 2036 GROUP 4 Q2 **** 0
388 CCL4 2041 GROUP 4 Q2 **** 0
389 CCL4 2046 GROUP 4 Q2 **** 0
390 CCL4 2051 GROUP 4 Q2 **** 0
391 CCL4 2056 GROUP 4 Q2 **** 0
392 CCL4 2061 GROUP 4 Q2 **** 0
393 CCL4 2066 GROUP 4 Q2 **** 0
394 CCL4 2071 GROUP 4 Q2 **** 0
395 CCL4 2076 GROUP 4 Q2 **** 0
396 CCL4 2081 GROUP 4 Q2 **** 0
397 CCL4 2086 GROUP 4 Q2 **** 0
398 CCL4 2091 GROUP 4 Q2 **** 0
399 CCL4 2096 GROUP 4 Q2 **** 0
400 CCL4 2101 GROUP 4 Q2 **** 0
401 CCL4 2106 GROUP 4 Q2 **** 0
402 CCL4 2111 GROUP 4 Q2 **** 0
403 CCL4 2116 GROUP 4 Q2 **** 0
404 CCL4 2121 GROUP 4 Q2 **** 0
405 CCL4 2126 GROUP 4 Q2 **** 0
406 CCL4 2131 GROUP 4 Q2 **** 0
407 CCL4 2136 GROUP 4 Q2 **** 0
408 CCL4 2141 GROUP 4 Q2 **** 0
409 CCL4 2146 GROUP 4 Q2 **** 0
410 CCL4 2151 GROUP 4 Q2 **** 0
411 CCL4 2156 GROUP 4 Q2 **** 0
412 CCL4 2161 GROUP 4 Q2 **** 0
413 CCL4 2166 GROUP 4 Q2 **** 0
414 CCL4 2171 GROUP 4 Q2 **** 0
415 CCL4 2176 GROUP 4 Q2 **** 0
416 CCL4 2181 GROUP 4 Q2 **** 0
417 CCL4 2186 GROUP 4 Q2 **** 0
418 CCL4 2191 GROUP 4 Q2 **** 0
419 CCL4 2196 GROUP 4 Q2 **** 0
420 CCL4 2201 GROUP 4 Q2 **** 0
421 CCL4 2206 GROUP 4 Q2 **** 0
422 CCL4 2211 GROUP 4 Q2 **** 0
423 CCL4 2216 GROUP 4 Q2 **** 0
424 CCL4 2221 GROUP 4 Q2 **** 0
425 CCL4 2226 GROUP 4 Q2 **** 0
426 CCL4 2231 GROUP 4 Q2 **** 0
427 CCL4 2236 GROUP 4 Q2 **** 0
428 CCL4 2241 GROUP 4 Q2 **** 0
429 CCL4 2246 GROUP 4 Q2 **** 0
430 CCL4 2251 GROUP 4 Q2 **** 0
431 CCL4 2256 GROUP 4 Q2 **** 0
432 CCL4 2261 GROUP 4 Q2 **** 0
433 CCL4 2266 GROUP 4 Q2 **** 0
434 CCL4 2271 GROUP 4 Q2 **** 0
435 CCL4 2276 GROUP 4 Q2 **** 0
436 CCL4 2281 GROUP 4 Q2 **** 0
437 CCL4 2286 GROUP 4 Q2 **** 0
438 CCL4 2291 GROUP 4 Q2 **** 0
439 CCL4 2296 GROUP 4 Q2 **** 0
440 CCL4 2301 GROUP 4 Q2 **** 0
441 CCL4 2306 GROUP 4 Q2 **** 0
442 CCL4 2311 GROUP 4 Q2 **** 0
443 CCL4 2316 GROUP 4 Q2 **** 0
444 CCL4 2321 GROUP 4 Q2 **** 0
445 CCL4 2326 GROUP 4 Q2 **** 0
446 CCL4 2331 GROUP 4 Q2 **** 0
447 CCL4 2336 GROUP 4 Q2 **** 0
448 CCL4 2341 GROUP 4 Q2 **** 0
449 CCL4 2346 GROUP 4 Q2 **** 0
450 CCL4 2351 GROUP 4 Q2 **** 0
451 CCL4 2356 GROUP 4 Q2 **** 0
452 CCL4 2361 GROUP 4 Q2 **** 0
453 CCL4 2366 GROUP 4 Q2 **** 0
454 CCL4 2371 GROUP 4 Q2 **** 0
455 CCL4 2376 GROUP 4 Q2 **** 0
456 CCL4 2381 GROUP 4 Q2 **** 0
457 CCL4 2386 GROUP 4 Q2 **** 0
458 CCL4 2391 GROUP 4 Q2 **** 0
459 CCL4 2396 GROUP 4 Q2 **** 0
460 CCL4 2401 GROUP 4 Q2 **** 0
461 CCL4 2406 GROUP 4 Q2 **** 0
462 CCL4 2411 GROUP 4 Q2 **** 0
463 CCL4 2416 GROUP 4 Q2 **** 0
464 CCL4 2421 GROUP 4 Q2 **** 0
465 CCL4 2426 GROUP 4 Q2 **** 0
466 CCL4 2431 GROUP 4 Q2 **** 0
467 CCL4 2436 GROUP 4 Q2 **** 0
468 CCL4 2441 GROUP 4 Q2 **** 0
469 CCL4 2446 GROUP 4 Q2 **** 0
470 CCL4 2451 GROUP 4 Q2 **** 0
471 CCL4 2456 GROUP 4 Q2 **** 0
472 CCL4 2461 GROUP 4 Q2 **** 0
473 CCL4 2466 GROUP 4 Q2 **** 0
474 CCL4 2471 GROUP 4 Q2 **** 0
475 CCL4 2476 GROUP 4 Q2 **** 0
476 CCL4 2481 GROUP 4 Q2 **** 0
477 CCL4 2486 GROUP 4 Q2 **** 0
478 CCL4 2491 GROUP 4 Q2 **** 0
479 CCL4 2496 GROUP 4 Q2 **** 0
480 CCL4 2501 GROUP 4 Q2 **** 0
481 CCL4 2506 GROUP 4 Q2 **** 0
482 CCL4 2511 GROUP 4 Q2 **** 0
483 CCL4 2516 GROUP 4 Q2 **** 0
484 CCL4 2521 GROUP 4 Q2 **** 0
485 CCL4 2526 GROUP 4 Q2 **** 0
486 CCL4 2531 GROUP 4 Q2 **** 0
487 CCL4 2536 GROUP 4 Q2 **** 0
488 CCL4 2541 GROUP 4 Q2 **** 0
489 CCL4 2546 GROUP 4 Q2 **** 0
490 CCL4 2551 GROUP 4 Q2 **** 0
491 CCL4 2556 GROUP 4 Q2 **** 0
492 CCL4 2561 GROUP 4 Q2 **** 0
493 CCL4 2566 GROUP 4 Q2 **** 0
494 CCL4 2571 GROUP 4 Q2 **** 0
495 CCL4 2576 GROUP 4 Q2 **** 0
496 CCL4 2581 GROUP 4 Q2 **** 0
497 CCL4 2586 GROUP 4 Q2 **** 0
498 CCL4 2591 GROUP 4 Q2 **** 0
499 CCL4 2596 GROUP 4 Q2 **** 0
500 CCL4 2601 GROUP 4 Q2 **** 0
501 CCL4 2606 GROUP 4 Q2 **** 0
502 CCL4 2611 GROUP 4 Q2 **** 0
503 CCL4 2616 GROUP 4 Q2 **** 0
504 CCL4 2621 GROUP 4 Q2 **** 0
505 CCL4 2626 GROUP 4 Q2 **** 0
506 CCL4 2631 GROUP 4 Q2 **** 0
507 CCL4 2636 GROUP 4 Q2 **** 0
508 CCL4 2641 GROUP 4 Q2 **** 0
509 CCL4 2646 GROUP 4 Q2 **** 0
510 CCL4 2651 GROUP 4 Q2 **** 0
511 CCL4 2656 GROUP 4 Q2 **** 0
512 CCL4 2661 GROUP 4 Q2 **** 0
513 CCL4 2666 GROUP 4 Q2 **** 0
514 CCL4 2671 GROUP 4 Q2 **** 0
515 CCL4 2676 GROUP 4 Q2 **** 0
516 CCL4 2681 GROUP 4 Q2 **** 0
517 CCL4 2686 GROUP 4 Q2 **** 0
518 CCL4 2691 GROUP 4 Q2 **** 0
519 CCL4 2696 GROUP 4 Q2 **** 0
520 CCL4 2701 GROUP 4 Q2 **** 0
521 CCL4 2706 GROUP 4 Q2 **** 0
522 CCL4 2711 GROUP 4 Q2 **** 0
523 CCL4 2716 GROUP 4 Q2 **** 0
524 CCL4 2721 GROUP 4 Q2 **** 0
525 CCL4 2726 GROUP 4 Q2 **** 0
526 CCL4 2731 GROUP 4 Q2 **** 0
527 CCL4 2736 GROUP 4 Q2 **** 0
528 CCL4 2741 GROUP 4 Q2 **** 0
529 CCL4 2746 GROUP 4 Q2 **** 0
530 CCL4 2751 GROUP 4 Q2 **** 0
531 CCL4 2756 GROUP 4 Q2 **** 0
532 CCL4 2761 GROUP 4 Q2 **** 0
533 CCL4 2766 GROUP 4 Q2 **** 0
534 CCL4 2771 GROUP 4 Q2 **** 0
535 CCL4 2776 GROUP 4 Q2 **** 0
536 CCL4 2781 GROUP 4 Q2 **** 0
537 CCL4 2786 GROUP 4 Q2 **** 0
538 CCL4 2791 GROUP 4 Q2 **** 0
539 CCL4 2796 GROUP 4 Q2 **** 0
540 CCL4 2801 GROUP 4 Q2 **** 0
541 CCL4 2806 GROUP 4 Q2 **** 0
542 CCL4 2811 GROUP 4 Q2 **** 0
543 CCL4 2816 GROUP 4 Q2 **** 0
544 CCL4 2821 GROUP 4 Q2 **** 0
545 CCL4 2826 GROUP 4 Q2 **** 0
546 CCL4 2831 GROUP 4 Q2 **** 0
547 CCL4 2836 GROUP 4 Q2 **** 0
548 CCL4 2841 GROUP 4 Q2 **** 0
549 CCL4 2846 GROUP 4 Q2 **** 0
550 CCL4 2851 GROUP 4 Q2 **** 0
551 CCL4 2856 GROUP 4 Q2 **** 0
552 CCL4 2861 GROUP 4 Q2 **** 0
553 CCL4 2866 GROUP 4 Q2 **** 0
554 CCL4 2871 GROUP 4 Q2 **** 0
555 CCL4 2876 GROUP 4 Q2 **** 0
556 CCL4 2881 GROUP 4 Q2 **** 0
557 CCL4 2886 GROUP 4 Q2 **** 0
558 CCL4 2891 GROUP 4 Q2 **** 0
559 CCL4 2896 GROUP 4 Q2 **** 0
560 CCL4 2901 GROUP 4 Q2 **** 0
561 CCL4 2906 GROUP 4 Q2 **** 0
562 CCL4 2911 GROUP 4 Q2 **** 0
563 CCL4 2916 GROUP 4 Q2 **** 0
564 CCL4 2921 GROUP 4 Q2 **** 0
565 CCL4 2926 GROUP 4 Q2 **** 0
566 CCL4 2931 GROUP 4 Q2 **** 0
567 CCL4 2936 GROUP 4 Q2 **** 0
568 CCL4 2941 GROUP 4 Q2 **** 0
569 CCL4 2946 GROUP 4 Q2 **** 0
570 CCL4 2951 GROUP 4 Q2 **** 0
571 CCL4 2956 GROUP 4 Q2 **** 0
572 CCL4 2961 GROUP 4 Q2 **** 0
573 CCL4 2966 GROUP 4 Q2 **** 0
574 CCL4 2971 GROUP 4 Q2 **** 0
575 CCL4 2976 GROUP 4 Q2 **** 0
576 CCL4 2981 GROUP 4 Q2 **** 0
577 CCL4 2986 GROUP 4 Q2 **** 0
578 CCL4 2991 GROUP 4 Q2 **** 0
579 CCL4 2996 GROUP 4 Q2 **** 0
580 CCL4 3001 GROUP 4 Q2 **** 0
581 CCL4 3006 GROUP 4 Q2 **** 0
582 CCL4 3011 GROUP 4 Q2 **** 0

# MOE 2020.09 (io_trps.svl 2020.11)
