@<TRIPOS>MOLECULE
C27H37NOS2
56 57 1 0 0 
SMALL
USER_CHARGES


@<TRIPOS>ATOM
  1 C        7.8601     0.4236    -0.7528 C.ar  1 <1>  -0.1500 
  2 H        8.7028     1.0569    -0.8642 H     1 <1>   0.1500 
  3 C        7.9443    -0.9135    -1.1281 C.ar  1 <1>  -0.1500 
  4 C        6.8399    -1.7450    -0.9873 C.ar  1 <1>  -0.1500 
  5 C        5.6330    -1.2554    -0.4682 C.ar  1 <1>   0.0862 
  6 C        4.4836    -2.1543    -0.3355 C.2   1 <1>   0.3976 
  7 O        4.6871    -3.3120     0.0085 O.2   1 <1>  -0.5700 
  8 C        3.1114    -1.7319    -0.6319 C.ar  1 <1>   0.0862 
  9 C        2.8406    -0.6467    -1.4855 C.ar  1 <1>  -0.1500 
 10 C        1.5320    -0.2718    -1.7634 C.ar  1 <1>  -0.1500 
 11 C        0.4745    -0.9790    -1.2001 C.ar  1 <1>   0.0825 
 12 O       -0.7919    -0.5470    -1.5028 O.3   1 <1>  -0.3625 
 13 C       -2.0253    -1.1204    -1.0159 C.3   1 <1>   0.1200 
 14 C       -3.1936    -0.1458    -1.1810 C.3   1 <1>  -0.1600 
 15 C       -4.5067    -0.7489    -0.6581 C.3   1 <1>  -0.1600 
 16 C       -5.5924     0.3286    -0.5478 C.3   1 <1>  -0.1600 
 17 C       -6.9259    -0.2479    -0.0448 C.3   1 <1>  -0.1600 
 18 C       -8.0062     0.8418    -0.0534 C.3   1 <1>  -0.1600 
 19 C       -9.3600     0.3326     0.4612 C.3   1 <1>  -0.1600 
 20 C      -10.4302     1.4080     0.2293 C.3   1 <1>  -0.1600 
 21 C      -11.8180     0.9774     0.7201 C.3   1 <1>  -0.1600 
 22 C      -12.8419     2.0754     0.4136 C.3   1 <1>   0.0700 
 23 S      -14.4852     1.5048     0.9128 S.3   1 <1>  -0.4100 
 24 C        0.7147    -2.0731    -0.3670 C.ar  1 <1>  -0.1500 
 25 C        2.0260    -2.4414    -0.0876 C.ar  1 <1>  -0.1500 
 26 C        5.5681     0.0920    -0.0791 C.ar  1 <1>  -0.1500 
 27 C        6.6726     0.9250    -0.2271 C.ar  1 <1>  -0.1500 
 28 H        8.8507    -1.2983    -1.5216 H     1 <1>   0.1500 
 29 H        6.9053    -2.7629    -1.2751 H     1 <1>   0.1500 
 30 H        3.6362    -0.1135    -1.9394 H     1 <1>   0.1500 
 31 H        1.3290     0.5437    -2.4052 H     1 <1>   0.1500 
 32 H       -2.2272    -2.0385    -1.5689 H     1 <1>   0.0800 
 33 H       -1.9152    -1.3523     0.0439 H     1 <1>   0.0800 
 34 H       -2.9565     0.7640    -0.6278 H     1 <1>   0.0800 
 35 H       -3.3011     0.1113    -2.2360 H     1 <1>   0.0800 
 36 H       -4.8374    -1.5332    -1.3410 H     1 <1>   0.0800 
 37 H       -4.3412    -1.1858     0.3263 H     1 <1>   0.0800 
 38 H       -5.2557     1.0968     0.1493 H     1 <1>   0.0800 
 39 H       -5.7379     0.7887    -1.5265 H     1 <1>   0.0800 
 40 H       -7.2385    -1.0678    -0.6926 H     1 <1>   0.0800 
 41 H       -6.8003    -0.6292     0.9697 H     1 <1>   0.0800 
 42 H       -7.6847     1.6677     0.5808 H     1 <1>   0.0800 
 43 H       -8.1237     1.2128    -1.0731 H     1 <1>   0.0800 
 44 H       -9.6405    -0.5785    -0.0678 H     1 <1>   0.0800 
 45 H       -9.2819     0.1125     1.5260 H     1 <1>   0.0800 
 46 H      -10.1384     2.3205     0.7506 H     1 <1>   0.0800 
 47 H      -10.4885     1.6173    -0.8402 H     1 <1>   0.0800 
 48 H      -12.1152     0.0541     0.2212 H     1 <1>   0.0800 
 49 H      -11.7945     0.8028     1.7955 H     1 <1>   0.0800 
 50 H      -12.5869     2.9814     0.9655 H     1 <1>   0.0800 
 51 H      -12.8449     2.2914    -0.6558 H     1 <1>   0.0800 
 52 H      -15.1448     2.6225     0.5910 H     1 <1>   0.1800 
 53 H       -0.0862    -2.6243     0.0498 H     1 <1>   0.1500 
 54 H        2.2144    -3.2762     0.5389 H     1 <1>   0.1500 
 55 H        4.6742     0.4796     0.3390 H     1 <1>   0.1500 
 56 H        6.6144     1.9422     0.0681 H     1 <1>   0.1500 
@<TRIPOS>BOND
  1   1   2  1   
  2   1   3  ar  
  3   1  27  ar  
  4   3   4  ar  
  5   3  28  1   
  6   4   5  ar  
  7   4  29  1   
  8   5   6  1   
  9   5  26  ar  
 10   6   7  2   
 11   6   8  1   
 12   8   9  ar  
 13   8  25  ar  
 14   9  10  ar  
 15   9  30  1   
 16  10  11  ar  
 17  10  31  1   
 18  11  12  1   
 19  11  24  ar  
 20  12  13  1   
 21  13  14  1   
 22  13  32  1   
 23  13  33  1   
 24  14  15  1   
 25  14  34  1   
 26  14  35  1   
 27  15  16  1   
 28  15  36  1   
 29  15  37  1   
 30  16  17  1   
 31  16  38  1   
 32  16  39  1   
 33  17  18  1   
 34  17  40  1   
 35  17  41  1   
 36  18  19  1   
 37  18  42  1   
 38  18  43  1   
 39  19  20  1   
 40  19  44  1   
 41  19  45  1   
 42  20  21  1   
 43  20  46  1   
 44  20  47  1   
 45  21  22  1   
 46  21  48  1   
 47  21  49  1   
 48  22  23  1   
 49  22  50  1   
 50  22  51  1   
 51  23  52  1   
 52  24  25  ar  
 53  24  53  1   
 54  25  54  1   
 55  26  27  ar  
 56  26  55  1   
 57  27  56  1   
@<TRIPOS>SUBSTRUCTURE
  1 ****  12 GROUP 4 **** **** 0

# MOE 2020.09 (io_trps.svl 2020.11)
@<TRIPOS>MOLECULE
CCL4
2470 1976 494 0 0 
SMALL
USER_CHARGES


@<TRIPOS>ATOM
   1 CL     -26.2495   -13.5115   -18.7175 Cl      1 CCL4  -0.0812 
   2 C      -25.8976   -13.2897   -16.9904 C.3     1 CCL4   0.3246 
   3 CL     -26.7888   -14.4985   -16.0408 Cl      1 CCL4  -0.0812 
   4 CL     -26.3945   -11.6591   -16.4928 Cl      1 CCL4  -0.0812 
   5 CL     -24.1561   -13.4906   -16.7129 Cl      1 CCL4  -0.0812 
   6 CL     -18.9408    -6.7927   -17.3026 Cl      2 CCL4  -0.0812 
   7 C      -18.2323    -5.3265   -18.0023 C.3     2 CCL4   0.3246 
   8 CL     -18.1415    -4.0605   -16.7577 Cl      2 CCL4  -0.0812 
   9 CL     -19.2487    -4.7686   -19.3470 Cl      2 CCL4  -0.0812 
  10 CL     -16.6029    -5.6988   -18.6039 Cl      2 CCL4  -0.0812 
  11 CL      25.2017     0.4961   -20.3983 Cl      3 CCL4  -0.0812 
  12 C       23.6650     0.2114   -19.5534 C.3     3 CCL4   0.3246 
  13 CL      22.8219    -1.1598   -20.3002 Cl      3 CCL4  -0.0812 
  14 CL      22.6460     1.6596   -19.6679 Cl      3 CCL4  -0.0812 
  15 CL      23.9868    -0.1504   -17.8467 Cl      3 CCL4  -0.0812 
  16 CL      26.1900   -12.8305    17.7832 Cl      4 CCL4  -0.0812 
  17 C       27.2625   -14.1090    18.3957 C.3     4 CCL4   0.3246 
  18 CL      26.3194   -15.5867    18.6846 Cl      4 CCL4  -0.0812 
  19 CL      28.0081   -13.5768    19.9164 Cl      4 CCL4  -0.0812 
  20 CL      28.5335   -14.4429    17.1996 Cl      4 CCL4  -0.0812 
  21 CL     -14.2683   -13.8750   -13.4684 Cl      5 CCL4  -0.0812 
  22 C      -14.3980   -15.5869   -13.9236 C.3     5 CCL4   0.3246 
  23 CL     -15.7343   -16.3292   -13.0296 Cl      5 CCL4  -0.0812 
  24 CL     -12.8863   -16.4306   -13.5256 Cl      5 CCL4  -0.0812 
  25 CL     -14.7173   -15.7213   -15.6659 Cl      5 CCL4  -0.0812 
  26 CL     -13.5060    18.9978   -10.6453 Cl      6 CCL4  -0.0812 
  27 C      -14.8865    19.1135   -11.7548 C.3     6 CCL4   0.3246 
  28 CL     -14.5117    20.2566   -13.0595 Cl      6 CCL4  -0.0812 
  29 CL     -16.3162    19.6824   -10.8655 Cl      6 CCL4  -0.0812 
  30 CL     -15.2062    17.5134   -12.4534 Cl      6 CCL4  -0.0812 
  31 CL     -15.2359   -14.4836    -7.5422 Cl      7 CCL4  -0.0812 
  32 C      -16.4294   -15.7383    -7.9271 C.3     7 CCL4   0.3246 
  33 CL     -16.6138   -15.8476    -9.6866 Cl      7 CCL4  -0.0812 
  34 CL     -17.9929   -15.3211    -7.1963 Cl      7 CCL4  -0.0812 
  35 CL     -15.8723   -17.2977    -7.2876 Cl      7 CCL4  -0.0812 
  36 CL     -18.5851   -20.5032    13.1538 Cl      8 CCL4  -0.0812 
  37 C      -18.4207   -18.7359    13.0892 C.3     8 CCL4   0.3246 
  38 CL     -16.7077   -18.2993    12.9192 Cl      8 CCL4  -0.0812 
  39 CL     -19.0563   -18.0376    14.5932 Cl      8 CCL4  -0.0812 
  40 CL     -19.3320   -18.1064    11.6992 Cl      8 CCL4  -0.0812 
  41 CL     -28.8278   -14.4797    -4.5075 Cl      9 CCL4  -0.0812 
  42 C      -27.6978   -15.0165    -3.2541 C.3     9 CCL4   0.3246 
  43 CL     -28.5394   -16.1270    -2.1571 Cl      9 CCL4  -0.0812 
  44 CL     -27.1121   -13.6055    -2.3520 Cl      9 CCL4  -0.0812 
  45 CL     -26.3231   -15.8532    -4.0036 Cl      9 CCL4  -0.0812 
  46 CL     -12.8962    20.7267    -6.1581 Cl     10 CCL4  -0.0812 
  47 C      -13.5285    19.0788    -6.3594 C.3    10 CCL4   0.3246 
  48 CL     -12.3646    18.1021    -7.2772 Cl     10 CCL4  -0.0812 
  49 CL     -15.0717    19.1385    -7.2379 Cl     10 CCL4  -0.0812 
  50 CL     -13.7776    18.3454    -4.7611 Cl     10 CCL4  -0.0812 
  51 CL      20.6367   -16.3203    -9.3925 Cl     11 CCL4  -0.0812 
  52 C       21.9716   -15.4554    -8.6037 C.3    11 CCL4   0.3246 
  53 CL      23.2338   -15.0848    -9.7928 Cl     11 CCL4  -0.0812 
  54 CL      22.6521   -16.4741    -7.3218 Cl     11 CCL4  -0.0812 
  55 CL      21.3672   -13.9426    -7.9039 Cl     11 CCL4  -0.0812 
  56 CL     -24.4990    19.5438    -9.4950 Cl     12 CCL4  -0.0812 
  57 C      -25.6961    20.6109    -8.7310 C.3    12 CCL4   0.3246 
  58 CL     -26.6550    21.4132    -9.9921 Cl     12 CCL4  -0.0812 
  59 CL     -24.8626    21.8327    -7.7444 Cl     12 CCL4  -0.0812 
  60 CL     -26.7743    19.6495    -7.6969 Cl     12 CCL4  -0.0812 
  61 CL     -24.2330   -11.3726    -7.2928 Cl     13 CCL4  -0.0812 
  62 C      -23.8861   -12.9049    -6.4610 C.3    13 CCL4   0.3246 
  63 CL     -25.0096   -14.1602    -7.0250 Cl     13 CCL4  -0.0812 
  64 CL     -24.0876   -12.7037    -4.7092 Cl     13 CCL4  -0.0812 
  65 CL     -22.2120   -13.3860    -6.8106 Cl     13 CCL4  -0.0812 
  66 CL     -17.4460   -12.6234    -4.8839 Cl     14 CCL4  -0.0812 
  67 C      -16.0830   -13.2140    -3.9133 C.3    14 CCL4   0.3246 
  68 CL     -14.5645   -12.6102    -4.6040 Cl     14 CCL4  -0.0812 
  69 CL     -16.0848   -14.9907    -3.9203 Cl     14 CCL4  -0.0812 
  70 CL     -16.2367   -12.6306    -2.2440 Cl     14 CCL4  -0.0812 
  71 CL     -15.8358    -3.8526    -8.0525 Cl     15 CCL4  -0.0812 
  72 C      -15.1509    -3.0659    -9.4874 C.3    15 CCL4   0.3246 
  73 CL     -14.3459    -1.5596    -9.0003 Cl     15 CCL4  -0.0812 
  74 CL     -16.4518    -2.7047   -10.6368 Cl     15 CCL4  -0.0812 
  75 CL     -13.9776    -4.1492   -10.2623 Cl     15 CCL4  -0.0812 
  76 CL     -16.3203    -7.9587    -3.5572 Cl     16 CCL4  -0.0812 
  77 C      -15.5464    -8.3308    -2.0014 C.3    16 CCL4   0.3246 
  78 CL     -16.7237    -9.1127    -0.9302 Cl     16 CCL4  -0.0812 
  79 CL     -14.9786    -6.8308    -1.2375 Cl     16 CCL4  -0.0812 
  80 CL     -14.1697    -9.4218    -2.2726 Cl     16 CCL4  -0.0812 
  81 CL     -15.8846   -11.9462   -10.4622 Cl     17 CCL4  -0.0812 
  82 C      -17.0121   -11.1168    -9.3692 C.3    17 CCL4   0.3246 
  83 CL     -16.2595   -10.9303    -7.7740 Cl     17 CCL4  -0.0812 
  84 CL     -18.4940   -12.0811    -9.2028 Cl     17 CCL4  -0.0812 
  85 CL     -17.4041    -9.5143   -10.0311 Cl     17 CCL4  -0.0812 
  86 CL     -15.2248    -6.9499   -12.3943 Cl     18 CCL4  -0.0812 
  87 C      -16.2371    -6.4596   -13.7691 C.3    18 CCL4   0.3246 
  88 CL     -17.5594    -7.6258   -13.9769 Cl     18 CCL4  -0.0812 
  89 CL     -15.2573    -6.4045   -15.2470 Cl     18 CCL4  -0.0812 
  90 CL     -16.9074    -4.8483   -13.4632 Cl     18 CCL4  -0.0812 
  91 CL      23.1915    -5.0036    -4.8736 Cl     19 CCL4  -0.0812 
  92 C       21.4800    -5.2625    -4.4686 C.3    19 CCL4   0.3246 
  93 CL      21.3492    -6.5513    -3.2577 Cl     19 CCL4  -0.0812 
  94 CL      20.5792    -5.7375    -5.9230 Cl     19 CCL4  -0.0812 
  95 CL      20.7925    -3.7630    -3.8130 Cl     19 CCL4  -0.0812 
  96 CL      20.7030    -8.0469    -8.9384 Cl     20 CCL4  -0.0812 
  97 C       21.5013    -9.1304   -10.0916 C.3    20 CCL4   0.3246 
  98 CL      20.3194    -9.6779   -11.2866 Cl     20 CCL4  -0.0812 
  99 CL      22.1687   -10.5293    -9.2264 Cl     20 CCL4  -0.0812 
 100 CL      22.8006    -8.2665   -10.9304 Cl     20 CCL4  -0.0812 
 101 CL     -25.2147    -6.0306   -10.2623 Cl     21 CCL4  -0.0812 
 102 C      -25.7564    -6.3043    -8.5935 C.3    21 CCL4   0.3246 
 103 CL     -27.4311    -5.7431    -8.4213 Cl     21 CCL4  -0.0812 
 104 CL     -24.7121    -5.4014    -7.4825 Cl     21 CCL4  -0.0812 
 105 CL     -25.6672    -8.0347    -8.2017 Cl     21 CCL4  -0.0812 
 106 CL     -18.2838    -2.5264    -4.1889 Cl     22 CCL4  -0.0812 
 107 C      -17.7161    -4.1766    -3.8716 C.3    22 CCL4   0.3246 
 108 CL     -17.8963    -5.1535    -5.3371 Cl     22 CCL4  -0.0812 
 109 CL     -18.6725    -4.8966    -2.5628 Cl     22 CCL4  -0.0812 
 110 CL     -16.0081    -4.1354    -3.4026 Cl     22 CCL4  -0.0812 
 111 CL      22.5469    -0.0238    -7.7933 Cl     23 CCL4  -0.0812 
 112 C       22.5471    -1.7395    -8.2367 C.3    23 CCL4   0.3246 
 113 CL      24.1571    -2.4171    -7.9459 Cl     23 CCL4  -0.0812 
 114 CL      22.1275    -1.9138    -9.9502 Cl     23 CCL4  -0.0812 
 115 CL      21.3576    -2.6054    -7.2524 Cl     23 CCL4  -0.0812 
 116 CL      21.9942   -10.2679    -3.3996 Cl     24 CCL4  -0.0812 
 117 C       22.0101   -10.4411    -5.1636 C.3    24 CCL4   0.3246 
 118 CL      23.3441   -11.5051    -5.6442 Cl     24 CCL4  -0.0812 
 119 CL      22.2434    -8.8481    -5.9045 Cl     24 CCL4  -0.0812 
 120 CL      20.4680   -11.1373    -5.7031 Cl     24 CCL4  -0.0812 
 121 CL     -21.6929    -5.8846    -9.7520 Cl     25 CCL4  -0.0812 
 122 C      -19.9663    -5.4911    -9.6495 C.3    25 CCL4   0.3246 
 123 CL     -19.7679    -3.7346    -9.4798 Cl     25 CCL4  -0.0812 
 124 CL     -19.1482    -6.0516   -11.1163 Cl     25 CCL4  -0.0812 
 125 CL     -19.2477    -6.3079    -8.2534 Cl     25 CCL4  -0.0812 
 126 CL     -25.2154    -8.0412    -4.4466 Cl     26 CCL4  -0.0812 
 127 C      -25.0665    -8.4383    -2.7215 C.3    26 CCL4   0.3246 
 128 CL     -23.5426    -7.7901    -2.0841 Cl     26 CCL4  -0.0812 
 129 CL     -25.0930   -10.1995    -2.5175 Cl     26 CCL4  -0.0812 
 130 CL     -26.4200    -7.7212    -1.8306 Cl     26 CCL4  -0.0812 
 131 CL     -22.2738   -10.5622   -17.9953 Cl     27 CCL4  -0.0812 
 132 C      -22.0391    -9.6438   -16.4955 C.3    27 CCL4   0.3246 
 133 CL     -22.4887    -7.9489   -16.7742 Cl     27 CCL4  -0.0812 
 134 CL     -20.3362    -9.7345   -16.0016 Cl     27 CCL4  -0.0812 
 135 CL     -23.0596   -10.3318   -15.2168 Cl     27 CCL4  -0.0812 
 136 CL     -23.9037   -16.8449   -14.9264 Cl     28 CCL4  -0.0812 
 137 C      -25.0932   -17.5461   -13.8124 C.3    28 CCL4   0.3246 
 138 CL     -25.5530   -16.3293   -12.6067 Cl     28 CCL4  -0.0812 
 139 CL     -24.3838   -18.9540   -12.9938 Cl     28 CCL4  -0.0812 
 140 CL     -26.5301   -18.0533   -14.7252 Cl     28 CCL4  -0.0812 
 141 CL     -21.2291   -15.5465    -0.8211 Cl     29 CCL4  -0.0812 
 142 C      -19.9580   -16.6596    -0.2865 C.3    29 CCL4   0.3246 
 143 CL     -19.9006   -16.6800     1.4883 Cl     29 CCL4  -0.0812 
 144 CL     -18.3913   -16.1200    -0.9292 Cl     29 CCL4  -0.0812 
 145 CL     -20.3218   -18.2903    -0.8868 Cl     29 CCL4  -0.0812 
 146 CL     -17.9879   -15.3353    21.9556 Cl     30 CCL4  -0.0812 
 147 C      -18.3503   -13.8069    21.1236 C.3    30 CCL4   0.3246 
 148 CL     -16.8602   -12.8565    20.9557 Cl     30 CCL4  -0.0812 
 149 CL     -19.5357   -12.8801    22.0649 Cl     30 CCL4  -0.0812 
 150 CL     -19.0142   -14.1498    19.5120 Cl     30 CCL4  -0.0812 
 151 CL     -20.8213   -18.7009   -13.8118 Cl     31 CCL4  -0.0812 
 152 C      -19.2267   -17.9305   -13.6947 C.3    31 CCL4   0.3246 
 153 CL     -18.9031   -17.5136   -12.0014 Cl     31 CCL4  -0.0812 
 154 CL     -19.2078   -16.4604   -14.6878 Cl     31 CCL4  -0.0812 
 155 CL     -17.9748   -19.0451   -14.2779 Cl     31 CCL4  -0.0812 
 156 CL     -18.3019   -11.1037   -13.2131 Cl     32 CCL4  -0.0812 
 157 C      -18.6251   -12.7728   -13.7194 C.3    32 CCL4   0.3246 
 158 CL     -20.2814   -12.8957   -14.3500 Cl     32 CCL4  -0.0812 
 159 CL     -18.4352   -13.8538   -12.3263 Cl     32 CCL4  -0.0812 
 160 CL     -17.4732   -13.2370   -14.9861 Cl     32 CCL4  -0.0812 
 161 CL     -21.5326   -15.8419   -17.4259 Cl     33 CCL4  -0.0812 
 162 C      -21.6227   -17.3713   -18.3211 C.3    33 CCL4   0.3246 
 163 CL     -21.0754   -17.1118   -19.9908 Cl     33 CCL4  -0.0812 
 164 CL     -23.3019   -17.9511   -18.3346 Cl     33 CCL4  -0.0812 
 165 CL     -20.5810   -18.5775   -17.5348 Cl     33 CCL4  -0.0812 
 166 CL     -22.7496    -4.3300   -12.8391 Cl     34 CCL4  -0.0812 
 167 C      -21.3809    -4.1768   -13.9589 C.3    34 CCL4   0.3246 
 168 CL     -20.1037    -3.2034   -13.2041 Cl     34 CCL4  -0.0812 
 169 CL     -21.9147    -3.3816   -15.4519 Cl     34 CCL4  -0.0812 
 170 CL     -20.7539    -5.7913   -14.3445 Cl     34 CCL4  -0.0812 
 171 CL     -24.7119    -3.3389   -20.5997 Cl     35 CCL4  -0.0812 
 172 C      -23.2929    -3.0807   -19.5610 C.3    35 CCL4   0.3246 
 173 CL     -22.7907    -4.6277   -18.8476 Cl     35 CCL4  -0.0812 
 174 CL     -23.7037    -1.9432   -18.2626 Cl     35 CCL4  -0.0812 
 175 CL     -21.9649    -2.4119   -20.5337 Cl     35 CCL4  -0.0812 
 176 CL     -20.6479   -15.1251    -9.7362 Cl     36 CCL4  -0.0812 
 177 C      -22.0973   -15.6521   -10.6149 C.3    36 CCL4   0.3246 
 178 CL     -22.3787   -17.3781   -10.3184 Cl     36 CCL4  -0.0812 
 179 CL     -21.8722   -15.3802   -12.3527 Cl     36 CCL4  -0.0812 
 180 CL     -23.4993   -14.7250   -10.0570 Cl     36 CCL4  -0.0812 
 181 CL     -25.7361   -12.0494   -10.6553 Cl     37 CCL4  -0.0812 
 182 C      -26.0062   -12.1090   -12.4081 C.3    37 CCL4   0.3246 
 183 CL     -27.4992   -13.0043   -12.7484 Cl     37 CCL4  -0.0812 
 184 CL     -24.6345   -12.9183   -13.1914 Cl     37 CCL4  -0.0812 
 185 CL     -26.1600   -10.4599   -13.0402 Cl     37 CCL4  -0.0812 
 186 CL     -21.3335    19.7058    -7.7115 Cl     38 CCL4  -0.0812 
 187 C      -19.9591    19.7208    -8.8345 C.3    38 CCL4   0.3246 
 188 CL     -20.5608    19.5884   -10.4978 Cl     38 CCL4  -0.0812 
 189 CL     -18.8883    18.3473    -8.4843 Cl     38 CCL4  -0.0812 
 190 CL     -19.0590    21.2408    -8.6486 Cl     38 CCL4  -0.0812 
 191 CL     -21.7113   -10.9147    -1.4651 Cl     39 CCL4  -0.0812 
 192 C      -20.2319   -11.6892    -2.0559 C.3    39 CCL4   0.3246 
 193 CL     -19.2062   -10.4695    -2.8320 Cl     39 CCL4  -0.0812 
 194 CL     -20.6493   -12.9507    -3.2338 Cl     39 CCL4  -0.0812 
 195 CL     -19.3640   -12.4128    -0.6887 Cl     39 CCL4  -0.0812 
 196 CL     -25.1243    -0.1698   -10.2290 Cl     40 CCL4  -0.0812 
 197 C      -23.4425    -0.7309   -10.3100 C.3    40 CCL4   0.3246 
 198 CL     -22.3864     0.5002    -9.5930 Cl     40 CCL4  -0.0812 
 199 CL     -22.9899    -0.9839   -12.0054 Cl     40 CCL4  -0.0812 
 200 CL     -23.2679    -2.2598    -9.4209 Cl     40 CCL4  -0.0812 
 201 CL     -23.7972    -2.4226    -5.6775 Cl     41 CCL4  -0.0812 
 202 C      -22.6206    -3.4875    -4.8838 C.3    41 CCL4   0.3246 
 203 CL     -21.4427    -4.0760    -6.0769 Cl     41 CCL4  -0.0812 
 204 CL     -23.4633    -4.8668    -4.1508 Cl     41 CCL4  -0.0812 
 205 CL     -21.7794    -2.5765    -3.6184 Cl     41 CCL4  -0.0812 
 206 CL     -21.8362   -18.7025    -4.3377 Cl     42 CCL4  -0.0812 
 207 C      -21.4856   -17.0337    -4.8329 C.3    42 CCL4   0.3246 
 208 CL     -21.5511   -16.9093    -6.6026 Cl     42 CCL4  -0.0812 
 209 CL     -19.8658   -16.5735    -4.2671 Cl     42 CCL4  -0.0812 
 210 CL     -22.6942   -15.9474    -4.1218 Cl     42 CCL4  -0.0812 
 211 CL     -18.3290    19.1156    -2.6608 Cl     43 CCL4  -0.0812 
 212 C      -18.4439    18.7386    -4.3909 C.3    43 CCL4   0.3246 
 213 CL     -17.2734    17.4679    -4.7977 Cl     43 CCL4  -0.0812 
 214 CL     -18.0934    20.2034    -5.3321 Cl     43 CCL4  -0.0812 
 215 CL     -20.0808    18.1657    -4.7679 Cl     43 CCL4  -0.0812 
 216 CL     -19.6422    -9.2127    -6.2529 Cl     44 CCL4  -0.0812 
 217 C      -21.1144    -8.5461    -5.5112 C.3    44 CCL4   0.3246 
 218 CL     -22.1076    -7.7319    -6.7333 Cl     44 CCL4  -0.0812 
 219 CL     -20.6662    -7.3832    -4.2483 Cl     44 CCL4  -0.0812 
 220 CL     -22.0595    -9.8637    -4.8010 Cl     44 CCL4  -0.0812 
 221 CL     -25.0498    -4.9208     0.1169 Cl     45 CCL4  -0.0812 
 222 C      -26.0330    -3.5832    -0.5101 C.3    45 CCL4   0.3246 
 223 CL     -25.1471    -2.7497    -1.8011 Cl     45 CCL4  -0.0812 
 224 CL     -26.3928    -2.4388     0.7991 Cl     45 CCL4  -0.0812 
 225 CL     -27.5479    -4.2275    -1.1662 Cl     45 CCL4  -0.0812 
 226 CL     -25.3546    -9.7763    20.2097 Cl     46 CCL4  -0.0812 
 227 C      -26.3877    -8.3307    20.1835 C.3    46 CCL4   0.3246 
 228 CL     -25.5241    -6.9692    20.9265 Cl     46 CCL4  -0.0812 
 229 CL     -27.8774    -8.6553    21.0930 Cl     46 CCL4  -0.0812 
 230 CL     -26.7971    -7.9191    18.5054 Cl     46 CCL4  -0.0812 
 231 CL     -21.1297    -8.9686   -12.3743 Cl     47 CCL4  -0.0812 
 232 C      -21.8310    -9.8450   -10.9985 C.3    47 CCL4   0.3246 
 233 CL     -20.8985    -9.4884    -9.5371 Cl     47 CCL4  -0.0812 
 234 CL     -21.7855   -11.5922   -11.3131 Cl     47 CCL4  -0.0812 
 235 CL     -23.5079    -9.3256   -10.7539 Cl     47 CCL4  -0.0812 
 236 CL     -24.8847    -5.4588   -15.6446 Cl     48 CCL4  -0.0812 
 237 C      -25.5380    -6.7801   -14.6586 C.3    48 CCL4   0.3246 
 238 CL     -26.8679    -6.1703   -13.6607 Cl     48 CCL4  -0.0812 
 239 CL     -24.2598    -7.4152   -13.6076 Cl     48 CCL4  -0.0812 
 240 CL     -26.1409    -8.0712   -15.7169 Cl     48 CCL4  -0.0812 
 241 CL     -25.5898    -1.9481   -14.8930 Cl     49 CCL4  -0.0812 
 242 C      -26.8502    -2.1003   -13.6525 C.3    49 CCL4   0.3246 
 243 CL     -27.3621    -0.4851   -13.1269 Cl     49 CCL4  -0.0812 
 244 CL     -26.1978    -3.0010   -12.2676 Cl     49 CCL4  -0.0812 
 245 CL     -28.2502    -2.9620   -14.3255 Cl     49 CCL4  -0.0812 
 246 CL     -27.6809   -13.5365     4.4238 Cl     50 CCL4  -0.0812 
 247 C      -27.0409   -13.3310     6.0640 C.3    50 CCL4   0.3246 
 248 CL     -27.2101   -14.8542     6.9583 Cl     50 CCL4  -0.0812 
 249 CL     -27.9562   -12.0544     6.8878 Cl     50 CCL4  -0.0812 
 250 CL     -25.3243   -12.8806     5.9847 Cl     50 CCL4  -0.0812 
 251 CL     -18.5118    -6.6411     5.6837 Cl     51 CCL4  -0.0812 
 252 C      -18.3660    -4.8903     5.4354 C.3    51 CCL4   0.3246 
 253 CL     -17.5142    -4.1816     6.8198 Cl     51 CCL4  -0.0812 
 254 CL     -19.9817    -4.1621     5.3014 Cl     51 CCL4  -0.0812 
 255 CL     -17.4503    -4.5837     3.9448 Cl     51 CCL4  -0.0812 
 256 CL      23.8668    -0.5195     4.0326 Cl     52 CCL4  -0.0812 
 257 C       22.2909    -0.6746     4.8282 C.3    52 CCL4   0.3246 
 258 CL      21.5047    -2.1586     4.2614 Cl     52 CCL4  -0.0812 
 259 CL      21.2847     0.7346     4.4314 Cl     52 CCL4  -0.0812 
 260 CL      22.5165    -0.7635     6.5856 Cl     52 CCL4  -0.0812 
 261 CL     -26.1459   -16.2634     0.3352 Cl     53 CCL4  -0.0812 
 262 C      -24.9156   -17.5408     0.3648 C.3    53 CCL4   0.3246 
 263 CL     -24.2192   -17.7358    -1.2575 Cl     53 CCL4  -0.0812 
 264 CL     -25.6670   -19.0680     0.8701 Cl     53 CCL4  -0.0812 
 265 CL     -23.6348   -17.0962     1.5128 Cl     53 CCL4  -0.0812 
 266 CL      21.2397   -16.3976     2.7792 Cl     54 CCL4  -0.0812 
 267 C       22.1583   -17.5433     3.7741 C.3    54 CCL4   0.3246 
 268 CL      21.4894   -17.5712     5.4176 Cl     54 CCL4  -0.0812 
 269 CL      23.8566   -17.0360     3.8352 Cl     54 CCL4  -0.0812 
 270 CL      22.0460   -19.1671     3.0635 Cl     54 CCL4  -0.0812 
 271 CL     -14.0686   -13.1571     9.9815 Cl     55 CCL4  -0.0812 
 272 C      -14.5787   -14.7904     9.5247 C.3    55 CCL4   0.3246 
 273 CL     -15.6475   -15.4500    10.7807 Cl     55 CCL4  -0.0812 
 274 CL     -13.1457   -15.8180     9.3555 Cl     55 CCL4  -0.0812 
 275 CL     -15.4414   -14.7332     7.9766 Cl     55 CCL4  -0.0812 
 276 CL     -14.1613    19.3056     7.4634 Cl     56 CCL4  -0.0812 
 277 C      -15.1900    20.6151     6.8544 C.3    56 CCL4   0.3246 
 278 CL     -14.3121    21.5147     5.6051 Cl     56 CCL4  -0.0812 
 279 CL     -15.6106    21.7168     8.1803 Cl     56 CCL4  -0.0812 
 280 CL     -16.6714    19.9250     6.1643 Cl     56 CCL4  -0.0812 
 281 CL     -18.3273   -19.7841     2.9702 Cl     57 CCL4  -0.0812 
 282 C      -16.8391   -19.1938     2.1992 C.3    57 CCL4   0.3246 
 283 CL     -15.4741   -20.2308     2.6661 Cl     57 CCL4  -0.0812 
 284 CL     -16.5245   -17.5232     2.7168 Cl     57 CCL4  -0.0812 
 285 CL     -17.0290   -19.2385     0.4347 Cl     57 CCL4  -0.0812 
 286 CL     -14.9302    18.3255    12.8470 Cl     58 CCL4  -0.0812 
 287 C      -15.5788    17.8100    11.2761 C.3    58 CCL4   0.3246 
 288 CL     -14.2820    17.0780    10.3090 Cl     58 CCL4  -0.0812 
 289 CL     -16.2252    19.2164    10.4165 Cl     58 CCL4  -0.0812 
 290 CL     -16.8832    16.6314    11.5276 Cl     58 CCL4  -0.0812 
 291 CL      23.1982   -14.9554    16.1261 Cl     59 CCL4  -0.0812 
 292 C       23.9887   -14.3823    14.6420 C.3    59 CCL4   0.3246 
 293 CL      23.1897   -15.1004    13.2260 Cl     59 CCL4  -0.0812 
 294 CL      25.7005   -14.8559    14.6668 Cl     59 CCL4  -0.0812 
 295 CL      23.8644   -12.6138    14.5545 Cl     59 CCL4  -0.0812 
 296 CL     -26.9299    19.8993     6.6607 Cl     60 CCL4  -0.0812 
 297 C      -26.9665    19.1538     8.2720 C.3    60 CCL4   0.3246 
 298 CL     -27.8904    20.1847     9.3847 Cl     60 CCL4  -0.0812 
 299 CL     -25.3091    18.9723     8.8809 Cl     60 CCL4  -0.0812 
 300 CL     -27.7320    17.5549     8.1645 Cl     60 CCL4  -0.0812 
 301 CL     -14.6018    -4.2716    14.1278 Cl     61 CCL4  -0.0812 
 302 C      -13.7948    -3.1880    12.9729 C.3    61 CCL4   0.3246 
 303 CL     -12.4152    -2.3899    13.7586 Cl     61 CCL4  -0.0812 
 304 CL     -14.9491    -1.9594    12.4131 Cl     61 CCL4  -0.0812 
 305 CL     -13.2125    -4.1316    11.5879 Cl     61 CCL4  -0.0812 
 306 CL     -20.0817    -9.6645     1.6034 Cl     62 CCL4  -0.0812 
 307 C      -20.5304    -8.0164     1.1182 C.3    62 CCL4   0.3246 
 308 CL     -20.0939    -7.7567    -0.5823 Cl     62 CCL4  -0.0812 
 309 CL     -19.6571    -6.8488     2.1293 Cl     62 CCL4  -0.0812 
 310 CL     -22.2809    -7.7956     1.3221 Cl     62 CCL4  -0.0812 
 311 CL     -16.6649    -3.8345     0.1717 Cl     63 CCL4  -0.0812 
 312 C      -16.0918    -2.1582     0.2931 C.3    63 CCL4   0.3246 
 313 CL     -14.3561    -2.1534     0.6716 Cl     63 CCL4  -0.0812 
 314 CL     -16.9923    -1.3346     1.5785 Cl     63 CCL4  -0.0812 
 315 CL     -16.3660    -1.3153    -1.2458 Cl     63 CCL4  -0.0812 
 316 CL     -16.1058   -11.9579    12.8778 Cl     64 CCL4  -0.0812 
 317 C      -16.9769   -10.4911    13.3724 C.3    64 CCL4   0.3246 
 318 CL     -15.8461    -9.3478    14.1278 Cl     64 CCL4  -0.0812 
 319 CL     -18.2472   -10.9246    14.5348 Cl     64 CCL4  -0.0812 
 320 CL     -17.7148    -9.7328    11.9497 Cl     64 CCL4  -0.0812 
 321 CL     -15.2065    -7.1155    11.1018 Cl     65 CCL4  -0.0812 
 322 C      -15.9691    -6.1800     9.7980 C.3    65 CCL4   0.3246 
 323 CL     -17.4215    -7.0246     9.2292 Cl     65 CCL4  -0.0812 
 324 CL     -14.8219    -5.9999     8.4549 Cl     65 CCL4  -0.0812 
 325 CL     -16.4304    -4.5774    10.4042 Cl     65 CCL4  -0.0812 
 326 CL      23.2288   -10.8194    -0.0294 Cl     66 CCL4  -0.0812 
 327 C       21.8327   -11.6699     0.6518 C.3    66 CCL4   0.3246 
 328 CL      22.2858   -13.3472     1.0104 Cl     66 CCL4  -0.0812 
 329 CL      20.4975   -11.6565    -0.5163 Cl     66 CCL4  -0.0812 
 330 CL      21.3245   -10.8505     2.1407 Cl     66 CCL4  -0.0812 
 331 CL      22.2814    -6.7711    15.3221 Cl     67 CCL4  -0.0812 
 332 C       23.1751    -7.7580    14.1462 C.3    67 CCL4   0.3246 
 333 CL      22.0347    -8.4475    12.9715 Cl     67 CCL4  -0.0812 
 334 CL      24.0202    -9.0699    14.9922 Cl     67 CCL4  -0.0812 
 335 CL      24.3666    -6.7449    13.3054 Cl     67 CCL4  -0.0812 
 336 CL      21.8556    -0.8532    15.9561 Cl     68 CCL4  -0.0812 
 337 C       23.1008    -2.1173    15.8737 C.3    68 CCL4   0.3246 
 338 CL      24.6429    -1.4669    16.4664 Cl     68 CCL4  -0.0812 
 339 CL      23.2930    -2.6522    14.1912 Cl     68 CCL4  -0.0812 
 340 CL      22.6149    -3.4957    16.8826 Cl     68 CCL4  -0.0812 
 341 CL     -20.6341    -5.2379    13.7681 Cl     69 CCL4  -0.0812 
 342 C      -18.9055    -5.0168    14.1110 C.3    69 CCL4   0.3246 
 343 CL     -18.3756    -3.4344    13.5020 Cl     69 CCL4  -0.0812 
 344 CL     -17.9767    -6.3018    13.3124 Cl     69 CCL4  -0.0812 
 345 CL     -18.6356    -5.0942    15.8652 Cl     69 CCL4  -0.0812 
 346 CL     -22.8089   -10.3340     4.4971 Cl     70 CCL4  -0.0812 
 347 C      -21.7255    -9.3224     5.4736 C.3    70 CCL4   0.3246 
 348 CL     -21.8064    -7.6413     4.9154 Cl     70 CCL4  -0.0812 
 349 CL     -20.0645    -9.9193     5.2968 Cl     70 CCL4  -0.0812 
 350 CL     -22.2192    -9.3933     7.1786 Cl     70 CCL4  -0.0812 
 351 CL     -23.7145   -14.9017     8.6319 Cl     71 CCL4  -0.0812 
 352 C      -23.9966   -16.4106     9.5242 C.3    71 CCL4   0.3246 
 353 CL     -24.5416   -16.0382    11.1715 Cl     71 CCL4  -0.0812 
 354 CL     -22.4889   -17.3444     9.6013 Cl     71 CCL4  -0.0812 
 355 CL     -25.2449   -17.3618     8.6962 Cl     71 CCL4  -0.0812 
 356 CL     -19.0965   -13.9809     3.8460 Cl     72 CCL4  -0.0812 
 357 C      -17.4894   -13.3993     3.3628 C.3    72 CCL4   0.3246 
 358 CL     -16.2524   -14.0919     4.4299 Cl     72 CCL4  -0.0812 
 359 CL     -17.4478   -11.6295     3.4841 Cl     72 CCL4  -0.0812 
 360 CL     -17.1577   -13.8924     1.6904 Cl     72 CCL4  -0.0812 
 361 CL     -19.6754   -18.4297     7.5946 Cl     73 CCL4  -0.0812 
 362 C      -19.2662   -16.7375     7.2636 C.3    73 CCL4   0.3246 
 363 CL     -18.7122   -15.9669     8.7620 Cl     73 CCL4  -0.0812 
 364 CL     -20.6963   -15.8810     6.6566 Cl     73 CCL4  -0.0812 
 365 CL     -17.9828   -16.6766     6.0414 Cl     73 CCL4  -0.0812 
 366 CL     -18.9679   -10.1503     8.5830 Cl     74 CCL4  -0.0812 
 367 C      -18.9536   -11.9175     8.4293 C.3    74 CCL4   0.3246 
 368 CL     -20.6103   -12.5085     8.1819 Cl     74 CCL4  -0.0812 
 369 CL     -18.2678   -12.6309     9.9037 Cl     74 CCL4  -0.0812 
 370 CL     -17.9593   -12.3793     7.0386 Cl     74 CCL4  -0.0812 
 371 CL     -19.8910    18.0627     0.4526 Cl     75 CCL4  -0.0812 
 372 C      -21.6271    18.0503     0.0794 C.3    75 CCL4   0.3246 
 373 CL     -22.3085    16.4708     0.5176 Cl     75 CCL4  -0.0812 
 374 CL     -21.8712    18.3366    -1.6559 Cl     75 CCL4  -0.0812 
 375 CL     -22.4395    19.3308     1.0024 Cl     75 CCL4  -0.0812 
 376 CL     -21.4907    -4.3473    -0.4682 Cl     76 CCL4  -0.0812 
 377 C      -21.0103    -2.8630     0.3804 C.3    76 CCL4   0.3246 
 378 CL     -19.9813    -1.8683    -0.6701 Cl     76 CCL4  -0.0812 
 379 CL     -20.1093    -3.2866     1.8463 Cl     76 CCL4  -0.0812 
 380 CL     -22.4627    -1.9483     0.8241 Cl     76 CCL4  -0.0812 
 381 CL     -23.7507   -17.1406     5.4089 Cl     77 CCL4  -0.0812 
 382 C      -23.1435   -18.7861     5.1304 C.3    77 CCL4   0.3246 
 383 CL     -24.3176   -19.7005     4.1618 Cl     77 CCL4  -0.0812 
 384 CL     -22.9097   -19.6026     6.6883 Cl     77 CCL4  -0.0812 
 385 CL     -21.5942   -18.7050     4.2657 Cl     77 CCL4  -0.0812 
 386 CL     -22.6278    -4.8510    10.6359 Cl     78 CCL4  -0.0812 
 387 C      -21.4318    -4.3895     9.4089 C.3    78 CCL4   0.3246 
 388 CL     -19.8760    -4.0615    10.1939 Cl     78 CCL4  -0.0812 
 389 CL     -21.9865    -2.9265     8.5714 Cl     78 CCL4  -0.0812 
 390 CL     -21.2319    -5.7144     8.2420 Cl     78 CCL4  -0.0812 
 391 CL     -22.0710   -13.0111     1.6638 Cl     79 CCL4  -0.0812 
 392 C      -23.7546   -12.7236     1.1760 C.3    79 CCL4   0.3246 
 393 CL     -24.8407   -13.4925     2.3484 Cl     79 CCL4  -0.0812 
 394 CL     -24.0411   -13.4147    -0.4353 Cl     79 CCL4  -0.0812 
 395 CL     -24.0691   -10.9771     1.1331 Cl     79 CCL4  -0.0812 
 396 CL     -25.8355    -4.0585     3.9959 Cl     80 CCL4  -0.0812 
 397 C      -24.0958    -3.9046     4.3227 C.3    80 CCL4   0.3246 
 398 CL     -23.7407    -4.5606     5.9309 Cl     80 CCL4  -0.0812 
 399 CL     -23.6224    -2.1949     4.2623 Cl     80 CCL4  -0.0812 
 400 CL     -23.1771    -4.8090     3.1047 Cl     80 CCL4  -0.0812 
 401 CL     -19.0312   -14.6392    13.0734 Cl     81 CCL4  -0.0812 
 402 C      -20.7892   -14.4242    12.9243 C.3    81 CCL4   0.3246 
 403 CL     -21.6291   -15.8388    13.5915 Cl     81 CCL4  -0.0812 
 404 CL     -21.2169   -14.2489    11.2124 Cl     81 CCL4  -0.0812 
 405 CL     -21.2860   -12.9712    13.8170 Cl     81 CCL4  -0.0812 
 406 CL     -24.3804   -12.4984    11.9013 Cl     82 CCL4  -0.0812 
 407 C      -25.4571   -11.8491    10.6503 C.3    82 CCL4   0.3246 
 408 CL     -26.6533   -13.0809    10.1969 Cl     82 CCL4  -0.0812 
 409 CL     -24.4988   -11.3934     9.2278 Cl     82 CCL4  -0.0812 
 410 CL     -26.2929   -10.4193    11.2824 Cl     82 CCL4  -0.0812 
 411 CL     -22.0242    17.3648     8.9495 Cl     83 CCL4  -0.0812 
 412 C      -21.0796    18.0286    10.2949 C.3    83 CCL4   0.3246 
 413 CL     -19.5567    18.6855     9.6710 Cl     83 CCL4  -0.0812 
 414 CL     -20.7326    16.7399    11.4667 Cl     83 CCL4  -0.0812 
 415 CL     -22.0042    19.3216    11.0874 Cl     83 CCL4  -0.0812 
 416 CL     -23.7776    -0.4221    13.9318 Cl     84 CCL4  -0.0812 
 417 C      -22.7805    -1.8918    13.9081 C.3    84 CCL4   0.3246 
 418 CL     -21.7899    -1.9619    15.3818 Cl     84 CCL4  -0.0812 
 419 CL     -21.7204    -1.8600    12.4841 Cl     84 CCL4  -0.0812 
 420 CL     -23.8329    -3.3211    13.8355 Cl     84 CCL4  -0.0812 
 421 CL     -26.3404   -10.2026     3.7649 Cl     85 CCL4  -0.0812 
 422 C      -26.4946    -8.4486     3.5522 C.3    85 CCL4   0.3246 
 423 CL     -25.2433    -7.6306     4.5020 Cl     85 CCL4  -0.0812 
 424 CL     -28.1015    -7.9305     4.1051 Cl     85 CCL4  -0.0812 
 425 CL     -26.2813    -8.0279     1.8420 Cl     85 CCL4  -0.0812 
 426 CL     -20.5591    -7.7706    11.0453 Cl     86 CCL4  -0.0812 
 427 C      -21.6454    -8.9151    11.8554 C.3    86 CCL4   0.3246 
 428 CL     -21.2708    -8.9600    13.5905 Cl     86 CCL4  -0.0812 
 429 CL     -21.4193   -10.5310    11.1595 Cl     86 CCL4  -0.0812 
 430 CL     -23.3288    -8.4007    11.6259 Cl     86 CCL4  -0.0812 
 431 CL     -27.0366    -6.1265     7.0735 Cl     87 CCL4  -0.0812 
 432 C      -26.4023    -7.3022     8.2410 C.3    87 CCL4   0.3246 
 433 CL     -27.3495    -7.2208     9.7397 Cl     87 CCL4  -0.0812 
 434 CL     -24.7039    -6.9294     8.5889 Cl     87 CCL4  -0.0812 
 435 CL     -26.5164    -8.9352     7.5584 Cl     87 CCL4  -0.0812 
 436 CL     -25.9378    -2.9511     8.3086 Cl     88 CCL4  -0.0812 
 437 C      -26.1667    -2.5574    10.0234 C.3    88 CCL4   0.3246 
 438 CL     -24.8844    -1.4506    10.5545 Cl     88 CCL4  -0.0812 
 439 CL     -26.0953    -4.0488    10.9779 Cl     88 CCL4  -0.0812 
 440 CL     -27.7483    -1.7862    10.2550 Cl     88 CCL4  -0.0812 
 441 CL     -26.9583    10.4657   -18.5284 Cl     89 CCL4  -0.0812 
 442 C      -26.5545    10.0985   -16.8384 C.3    89 CCL4   0.3246 
 443 CL     -27.5402     8.7305   -16.2804 Cl     89 CCL4  -0.0812 
 444 CL     -26.8923    11.5187   -15.8259 Cl     89 CCL4  -0.0812 
 445 CL     -24.8320     9.6813   -16.7243 Cl     89 CCL4  -0.0812 
 446 CL     -16.3834    -0.4868    22.6649 Cl     90 CCL4  -0.0812 
 447 C      -15.6148    -1.4542    21.3881 C.3    90 CCL4   0.3246 
 448 CL     -16.8669    -2.1541    20.3433 Cl     90 CCL4  -0.0812 
 449 CL     -14.6539    -2.7523    22.1291 Cl     90 CCL4  -0.0812 
 450 CL     -14.5567    -0.4237    20.4041 Cl     90 CCL4  -0.0812 
 451 CL      25.1821     6.6092    21.3611 Cl     91 CCL4  -0.0812 
 452 C       24.4580     5.2079    22.1738 C.3    91 CCL4   0.3246 
 453 CL      22.7335     5.1240    21.7581 Cl     91 CCL4  -0.0812 
 454 CL      24.6419     5.3793    23.9327 Cl     91 CCL4  -0.0812 
 455 CL      25.2748     3.7252    21.6356 Cl     91 CCL4  -0.0812 
 456 CL     -13.6192    10.4737   -13.7806 Cl     92 CCL4  -0.0812 
 457 C      -14.1203     8.7791   -13.9592 C.3    92 CCL4   0.3246 
 458 CL     -15.4526     8.4244   -12.8381 Cl     92 CCL4  -0.0812 
 459 CL     -12.7473     7.7147   -13.5933 Cl     92 CCL4  -0.0812 
 460 CL     -14.6583     8.5046   -15.6296 Cl     92 CCL4  -0.0812 
 461 CL     -13.9307     2.2931   -14.1089 Cl     93 CCL4  -0.0812 
 462 C      -15.0286     3.6868   -14.1154 C.3    93 CCL4   0.3246 
 463 CL     -14.4281     4.9118   -15.2489 Cl     93 CCL4  -0.0812 
 464 CL     -15.1098     4.3966   -12.4909 Cl     93 CCL4  -0.0812 
 465 CL     -16.6438     3.1468   -14.6164 Cl     93 CCL4  -0.0812 
 466 CL     -16.2916     9.6338    -8.5614 Cl     94 CCL4  -0.0812 
 467 C      -16.7442     8.1165    -7.7581 C.3    94 CCL4   0.3246 
 468 CL     -16.9672     6.8496    -8.9802 Cl     94 CCL4  -0.0812 
 469 CL     -18.2598     8.3431    -6.8608 Cl     94 CCL4  -0.0812 
 470 CL     -15.4594     7.6375    -6.6303 Cl     94 CCL4  -0.0812 
 471 CL     -14.8678     2.6203    22.1487 Cl     95 CCL4  -0.0812 
 472 C      -15.6552     3.8523    21.1444 C.3    95 CCL4   0.3246 
 473 CL     -14.6018     5.2768    21.0115 Cl     95 CCL4  -0.0812 
 474 CL     -17.1967     4.3253    21.8892 Cl     95 CCL4  -0.0812 
 475 CL     -15.9557     3.1833    19.5271 Cl     95 CCL4  -0.0812 
 476 CL      21.5200     0.8920    -4.3351 Cl     96 CCL4  -0.0812 
 477 C       22.8157     0.0400    -3.4683 C.3    96 CCL4   0.3246 
 478 CL      24.0195     1.2181    -2.9092 Cl     96 CCL4  -0.0812 
 479 CL      23.5973    -1.1292    -4.5506 Cl     96 CCL4  -0.0812 
 480 CL      22.1313    -0.8234    -2.0765 Cl     96 CCL4  -0.0812 
 481 CL     -27.5680    10.5753    -5.9680 Cl     97 CCL4  -0.0812 
 482 C      -27.4027     9.6689    -4.4537 C.3    97 CCL4   0.3246 
 483 CL     -29.0108     9.2603    -3.8227 Cl     97 CCL4  -0.0812 
 484 CL     -26.5378    10.6778    -3.2777 Cl     97 CCL4  -0.0812 
 485 CL     -26.4961     8.1711    -4.7537 Cl     97 CCL4  -0.0812 
 486 CL     -14.3394     4.2163    -7.8664 Cl     98 CCL4  -0.0812 
 487 C      -15.0718     2.8069    -8.6569 C.3    98 CCL4   0.3246 
 488 CL     -13.9481     2.1237    -9.8518 Cl     98 CCL4  -0.0812 
 489 CL     -16.5715     3.3068    -9.4592 Cl     98 CCL4  -0.0812 
 490 CL     -15.4382     1.5775    -7.4370 Cl     98 CCL4  -0.0812 
 491 CL      20.4556     8.3848   -10.2797 Cl     99 CCL4  -0.0812 
 492 C       21.3039     9.1593    -8.9275 C.3    99 CCL4   0.3246 
 493 CL      21.6985    10.8383    -9.3486 Cl     99 CCL4  -0.0812 
 494 CL      22.8007     8.2659    -8.5915 Cl     99 CCL4  -0.0812 
 495 CL      20.2576     9.1486    -7.4929 Cl     99 CCL4  -0.0812 
 496 CL     -25.7889     3.4048   -10.1841 Cl    100 CCL4  -0.0812 
 497 C      -27.3861     3.4883   -10.9605 C.3   100 CCL4   0.3246 
 498 CL     -27.1862     3.7591   -12.7009 Cl    100 CCL4  -0.0812 
 499 CL     -28.3295     4.8229   -10.2641 Cl    100 CCL4  -0.0812 
 500 CL     -28.2476     1.9600   -10.7052 Cl    100 CCL4  -0.0812 
 501 CL     -23.2009    12.6991    -7.8766 Cl    101 CCL4  -0.0812 
 502 C      -23.2620    11.7459    -6.3804 C.3   101 CCL4   0.3246 
 503 CL     -24.0775    10.1994    -6.6941 Cl    101 CCL4  -0.0812 
 504 CL     -24.1506    12.6484    -5.1350 Cl    101 CCL4  -0.0812 
 505 CL     -21.6095    11.4380    -5.8170 Cl    101 CCL4  -0.0812 
 506 CL     -17.9396    11.7642    -5.9960 Cl    102 CCL4  -0.0812 
 507 C      -16.6507    11.7789    -4.7806 C.3   102 CCL4   0.3246 
 508 CL     -15.0882    11.4809    -5.5693 Cl    102 CCL4  -0.0812 
 509 CL     -16.9596    10.5061    -3.5831 Cl    102 CCL4  -0.0812 
 510 CL     -16.6216    13.3643    -3.9807 Cl    102 CCL4  -0.0812 
 511 CL     -18.9752     2.3367   -11.8632 Cl    103 CCL4  -0.0812 
 512 C      -18.3999     0.6858   -12.1581 C.3   103 CCL4   0.3246 
 513 CL     -19.2352    -0.4295   -11.0603 Cl    103 CCL4  -0.0812 
 514 CL     -16.6502     0.6178   -11.8634 Cl    103 CCL4  -0.0812 
 515 CL     -18.7419     0.2232   -13.8393 Cl    103 CCL4  -0.0812 
 516 CL     -15.7142    13.3261    -8.7001 Cl    104 CCL4  -0.0812 
 517 C      -15.9608    14.9374    -8.0019 C.3   104 CCL4   0.3246 
 518 CL     -14.8812    15.1527    -6.6079 Cl    104 CCL4  -0.0812 
 519 CL     -17.6513    15.0932    -7.4896 Cl    104 CCL4  -0.0812 
 520 CL     -15.6014    16.1773    -9.2170 Cl    104 CCL4  -0.0812 
 521 CL      24.9740    20.3836    -4.1893 Cl    105 CCL4  -0.0812 
 522 C       23.2671    20.0805    -3.7970 C.3   105 CCL4   0.3246 
 523 CL      23.0153    20.2957    -2.0528 Cl    105 CCL4  -0.0812 
 524 CL      22.8352    18.4220    -4.2619 Cl    105 CCL4  -0.0812 
 525 CL      22.2375    21.2213    -4.6845 Cl    105 CCL4  -0.0812 
 526 CL      20.8836    12.8070    -3.4636 Cl    106 CCL4  -0.0812 
 527 C       21.0674    13.7846    -4.9355 C.3   106 CCL4   0.3246 
 528 CL      22.7929    14.0491    -5.2616 Cl    106 CCL4  -0.0812 
 529 CL      20.2648    15.3529    -4.7051 Cl    106 CCL4  -0.0812 
 530 CL      20.3320    12.9325    -6.3118 Cl    106 CCL4  -0.0812 
 531 CL     -27.6487    15.6370    -1.9646 Cl    107 CCL4  -0.0812 
 532 C      -25.8924    15.8904    -1.9810 C.3   107 CCL4   0.3246 
 533 CL     -25.3126    15.9625    -3.6583 Cl    107 CCL4  -0.0812 
 534 CL     -25.1070    14.5396    -1.1395 Cl    107 CCL4  -0.0812 
 535 CL     -25.5051    17.4189    -1.1614 Cl    107 CCL4  -0.0812 
 536 CL     -19.2807    15.5046   -14.6426 Cl    108 CCL4  -0.0812 
 537 C      -18.8638    17.2231   -14.5454 C.3   108 CCL4   0.3246 
 538 CL     -20.1211    18.1800   -15.3548 Cl    108 CCL4  -0.0812 
 539 CL     -17.3030    17.4949   -15.3480 Cl    108 CCL4  -0.0812 
 540 CL     -18.7543    17.7014   -12.8396 Cl    108 CCL4  -0.0812 
 541 CL     -24.7962     7.8466   -13.7522 Cl    109 CCL4  -0.0812 
 542 C      -24.2531     6.9137   -12.3485 C.3   109 CCL4   0.3246 
 543 CL     -25.5403     6.8826   -11.1285 Cl    109 CCL4  -0.0812 
 544 CL     -22.8085     7.6726   -11.6541 Cl    109 CCL4  -0.0812 
 545 CL     -23.8690     5.2602   -12.8641 Cl    109 CCL4  -0.0812 
 546 CL     -18.2167     8.5036    -0.7817 Cl    110 CCL4  -0.0812 
 547 C      -17.9946     7.4626     0.6372 C.3   110 CCL4   0.3246 
 548 CL     -19.5839     7.0416     1.3078 Cl    110 CCL4  -0.0812 
 549 CL     -17.0434     8.3230     1.8663 Cl    110 CCL4  -0.0812 
 550 CL     -17.1364     5.9840     0.1529 Cl    110 CCL4  -0.0812 
 551 CL     -21.1527    10.2627    23.9656 Cl    111 CCL4  -0.0812 
 552 C      -19.6073    10.8052    23.2765 C.3   111 CCL4   0.3246 
 553 CL     -18.2605    10.0860    24.1867 Cl    111 CCL4  -0.0812 
 554 CL     -19.5109    12.5750    23.3669 Cl    111 CCL4  -0.0812 
 555 CL     -19.5045    10.3045    21.5762 Cl    111 CCL4  -0.0812 
 556 CL     -19.9545     4.7826   -14.4424 Cl    112 CCL4  -0.0812 
 557 C      -19.0757     6.1977   -13.8288 C.3   112 CCL4   0.3246 
 558 CL     -18.5561     5.8988   -12.1573 Cl    112 CCL4  -0.0812 
 559 CL     -20.1396     7.6149   -13.8728 Cl    112 CCL4  -0.0812 
 560 CL     -17.6565     6.5026   -14.8488 Cl    112 CCL4  -0.0812 
 561 CL     -17.2759    14.3741   -11.8526 Cl    113 CCL4  -0.0812 
 562 C      -17.2664    12.8150   -12.7007 C.3   113 CCL4   0.3246 
 563 CL     -18.9342    12.2938   -13.0053 Cl    113 CCL4  -0.0812 
 564 CL     -16.4516    11.6016   -11.6971 Cl    113 CCL4  -0.0812 
 565 CL     -16.4058    12.9866   -14.2451 Cl    113 CCL4  -0.0812 
 566 CL     -22.2109     7.9159   -18.9704 Cl    114 CCL4  -0.0812 
 567 C      -21.6578     6.5975   -17.9168 C.3   114 CCL4   0.3246 
 568 CL     -21.9161     5.0390   -18.7291 Cl    114 CCL4  -0.0812 
 569 CL     -22.5684     6.6360   -16.3928 Cl    114 CCL4  -0.0812 
 570 CL     -19.9281     6.8025   -17.5782 Cl    114 CCL4  -0.0812 
 571 CL     -22.9259     3.0721   -15.8754 Cl    115 CCL4  -0.0812 
 572 C      -23.1150     1.7726   -14.6850 C.3   115 CCL4   0.3246 
 573 CL     -22.1450     2.1416   -13.2485 Cl    115 CCL4  -0.0812 
 574 CL     -22.5735     0.2360   -15.3876 Cl    115 CCL4  -0.0812 
 575 CL     -24.8208     1.6435   -14.2256 Cl    115 CCL4  -0.0812 
 576 CL     -20.0154    -0.9080   -17.7176 Cl    116 CCL4  -0.0812 
 577 C      -20.0739     0.7726   -18.2943 C.3   116 CCL4   0.3246 
 578 CL     -19.6383     1.8719   -16.9683 Cl    116 CCL4  -0.0812 
 579 CL     -21.7146     1.1496   -18.8648 Cl    116 CCL4  -0.0812 
 580 CL     -18.9230     0.9807   -19.6310 Cl    116 CCL4  -0.0812 
 581 CL     -19.2524     9.3212   -10.8542 Cl    117 CCL4  -0.0812 
 582 C      -20.3929    10.3237    -9.9344 C.3   117 CCL4   0.3246 
 583 CL     -21.1963     9.3204    -8.7098 Cl    117 CCL4  -0.0812 
 584 CL     -21.6123    11.0079   -11.0288 Cl    117 CCL4  -0.0812 
 585 CL     -19.5110    11.6471    -9.1445 Cl    117 CCL4  -0.0812 
 586 CL     -25.3163    10.4780   -10.2152 Cl    118 CCL4  -0.0812 
 587 C      -25.9669    11.1433   -11.7288 C.3   118 CCL4   0.3246 
 588 CL     -27.2569    10.0877   -12.3401 Cl    118 CCL4  -0.0812 
 589 CL     -24.6672    11.2423   -12.9328 Cl    118 CCL4  -0.0812 
 590 CL     -26.6284    12.7644   -11.4326 Cl    118 CCL4  -0.0812 
 591 CL     -23.1273     6.0433    -8.4755 Cl    119 CCL4  -0.0812 
 592 C      -21.8859     4.7758    -8.5419 C.3   119 CCL4   0.3246 
 593 CL     -21.7793     4.1356   -10.1934 Cl    119 CCL4  -0.0812 
 594 CL     -22.3251     3.4675    -7.4247 Cl    119 CCL4  -0.0812 
 595 CL     -20.3135     5.4572    -8.0762 Cl    119 CCL4  -0.0812 
 596 CL     -20.5921    -0.5442    -6.5750 Cl    120 CCL4  -0.0812 
 597 C      -19.0359     0.2329    -6.9252 C.3   120 CCL4   0.3246 
 598 CL     -19.2920     1.6075    -8.0186 Cl    120 CCL4  -0.0812 
 599 CL     -17.9513    -0.9462    -7.6888 Cl    120 CCL4  -0.0812 
 600 CL     -18.3071     0.8160    -5.4165 Cl    120 CCL4  -0.0812 
 601 CL     -22.0105    14.7790    -2.8539 Cl    121 CCL4  -0.0812 
 602 C      -20.3192    14.3695    -3.1875 C.3   121 CCL4   0.3246 
 603 CL     -20.0084    14.5708    -4.9223 Cl    121 CCL4  -0.0812 
 604 CL     -20.0083    12.6840    -2.7183 Cl    121 CCL4  -0.0812 
 605 CL     -19.2583    15.4509    -2.2608 Cl    121 CCL4  -0.0812 
 606 CL     -21.7201     6.7159    -2.4453 Cl    122 CCL4  -0.0812 
 607 C      -21.8601     8.0267    -3.6357 C.3   122 CCL4   0.3246 
 608 CL     -21.9575     7.3382    -5.2694 Cl    122 CCL4  -0.0812 
 609 CL     -20.4378     9.0831    -3.5290 Cl    122 CCL4  -0.0812 
 610 CL     -23.3235     8.9731    -3.2996 Cl    122 CCL4  -0.0812 
 611 CL     -27.4967     4.2733    -4.6752 Cl    123 CCL4  -0.0812 
 612 C      -26.1351     4.2208    -5.8142 C.3   123 CCL4   0.3246 
 613 CL     -25.9324     2.5624    -6.4184 Cl    123 CCL4  -0.0812 
 614 CL     -24.6537     4.7458    -4.9900 Cl    123 CCL4  -0.0812 
 615 CL     -26.4554     5.3080    -7.1778 Cl    123 CCL4  -0.0812 
 616 CL     -18.3419     6.2674    -3.8508 Cl    124 CCL4  -0.0812 
 617 C      -18.2860     4.5850    -4.4059 C.3   124 CCL4   0.3246 
 618 CL     -17.4498     3.5915    -3.1929 Cl    124 CCL4  -0.0812 
 619 CL     -17.4079     4.4989    -5.9461 Cl    124 CCL4  -0.0812 
 620 CL     -19.9432     3.9912    -4.6359 Cl    124 CCL4  -0.0812 
 621 CL     -22.7921     3.0219    -2.5862 Cl    125 CCL4  -0.0812 
 622 C      -22.5485     1.3184    -3.0159 C.3   125 CCL4   0.3246 
 623 CL     -20.8177     0.9312    -2.9487 Cl    125 CCL4  -0.0812 
 624 CL     -23.1643     1.0313    -4.6551 Cl    125 CCL4  -0.0812 
 625 CL     -23.4227     0.2884    -1.8682 Cl    125 CCL4  -0.0812 
 626 CL     -22.1775    13.4810    25.8549 Cl    126 CCL4  -0.0812 
 627 C      -23.3412    14.1936    24.7192 C.3   126 CCL4   0.3246 
 628 CL     -22.7036    15.7295    24.0996 Cl    126 CCL4  -0.0812 
 629 CL     -24.8821    14.4926    25.5512 Cl    126 CCL4  -0.0812 
 630 CL     -23.6006    13.0762    23.3640 Cl    126 CCL4  -0.0812 
 631 CL     -22.2956    16.8321   -12.1257 Cl    127 CCL4  -0.0812 
 632 C      -22.2021    15.6554   -10.7966 C.3   127 CCL4   0.3246 
 633 CL     -23.5121    14.4708   -10.9674 Cl    127 CCL4  -0.0812 
 634 CL     -22.3627    16.4927    -9.2386 Cl    127 CCL4  -0.0812 
 635 CL     -20.6380    14.8197   -10.8526 Cl    127 CCL4  -0.0812 
 636 CL     -25.9003     9.3947     2.7839 Cl    128 CCL4  -0.0812 
 637 C      -26.5777     9.3653     4.4221 C.3   128 CCL4   0.3246 
 638 CL     -27.7204     8.0146     4.5497 Cl    128 CCL4  -0.0812 
 639 CL     -27.4205    10.8957     4.7456 Cl    128 CCL4  -0.0812 
 640 CL     -25.2699     9.1505     5.6039 Cl    128 CCL4  -0.0812 
 641 CL     -15.5635     0.9218     6.4294 Cl    129 CCL4  -0.0812 
 642 C      -15.9880     0.2304     4.8529 C.3   129 CCL4   0.3246 
 643 CL     -17.1414    -1.0947     5.0981 Cl    129 CCL4  -0.0812 
 644 CL     -14.5271    -0.3912     4.0612 Cl    129 CCL4  -0.0812 
 645 CL     -16.7230     1.4843     3.8346 Cl    129 CCL4  -0.0812 
 646 CL     -26.9223     8.4503    -0.6344 Cl    130 CCL4  -0.0812 
 647 C      -26.0501     6.9398    -0.3272 C.3   130 CCL4   0.3246 
 648 CL     -26.0608     5.9544    -1.8021 Cl    130 CCL4  -0.0812 
 649 CL     -26.8484     6.0664     0.9989 Cl    130 CCL4  -0.0812 
 650 CL     -24.3710     7.2991     0.1204 Cl    130 CCL4  -0.0812 
 651 CL      20.0333     6.2107     2.9493 Cl    131 CCL4  -0.0812 
 652 C       20.4488     4.5503     3.4260 C.3   131 CCL4   0.3246 
 653 CL      19.0743     3.8215     4.2844 Cl    131 CCL4  -0.0812 
 654 CL      21.8709     4.5727     4.4865 Cl    131 CCL4  -0.0812 
 655 CL      20.8227     3.5946     1.9790 Cl    131 CCL4  -0.0812 
 656 CL     -13.9100    12.1832     7.0544 Cl    132 CCL4  -0.0812 
 657 C      -14.9147    10.7481     6.7698 C.3   132 CCL4   0.3246 
 658 CL     -16.4089    10.8636     7.7203 Cl    132 CCL4  -0.0812 
 659 CL     -14.0198     9.2984     7.2657 Cl    132 CCL4  -0.0812 
 660 CL     -15.3196    10.6478     5.0434 Cl    132 CCL4  -0.0812 
 661 CL     -13.4841     3.9998    10.8588 Cl    133 CCL4  -0.0812 
 662 C      -14.5843     5.1197    10.0270 C.3   133 CCL4   0.3246 
 663 CL     -13.7360     5.8938     8.6730 Cl    133 CCL4  -0.0812 
 664 CL     -15.1396     6.3691    11.1604 Cl    133 CCL4  -0.0812 
 665 CL     -15.9837     4.2149     9.4179 Cl    133 CCL4  -0.0812 
 666 CL     -15.8409     4.3678     5.8912 Cl    134 CCL4  -0.0812 
 667 C      -16.0865     5.4755     4.5298 C.3   134 CCL4   0.3246 
 668 CL     -15.3067     7.0254     4.8899 Cl    134 CCL4  -0.0812 
 669 CL     -17.8268     5.7327     4.2861 Cl    134 CCL4  -0.0812 
 670 CL     -15.3641     4.7814     3.0621 Cl    134 CCL4  -0.0812 
 671 CL      21.2559     6.0080     9.7556 Cl    135 CCL4  -0.0812 
 672 C       21.0017     6.6643    11.3829 C.3   135 CCL4   0.3246 
 673 CL      20.5290     8.3708    11.2587 Cl    135 CCL4  -0.0812 
 674 CL      22.5088     6.5383    12.3133 Cl    135 CCL4  -0.0812 
 675 CL      19.7186     5.7442    12.1985 Cl    135 CCL4  -0.0812 
 676 CL     -26.5900     3.4549    13.5859 Cl    136 CCL4  -0.0812 
 677 C      -27.8842     2.4217    12.9448 C.3   136 CCL4   0.3246 
 678 CL     -28.3292     2.9673    11.3169 Cl    136 CCL4  -0.0812 
 679 CL     -29.3042     2.5265    14.0063 Cl    136 CCL4  -0.0812 
 680 CL     -27.3154     0.7412    12.8686 Cl    136 CCL4  -0.0812 
 681 CL     -18.6227     1.6658     9.2198 Cl    137 CCL4  -0.0812 
 682 C      -17.8245     0.1797     9.7711 C.3   137 CCL4   0.3246 
 683 CL     -18.4968    -0.3187    11.3367 Cl    137 CCL4  -0.0812 
 684 CL     -16.0825     0.4803     9.9474 Cl    137 CCL4  -0.0812 
 685 CL     -18.1015    -1.1080     8.5823 Cl    137 CCL4  -0.0812 
 686 CL     -17.4908    14.1452     6.3549 Cl    138 CCL4  -0.0812 
 687 C      -17.4519    14.9440     7.9422 C.3   138 CCL4   0.3246 
 688 CL     -16.1576    14.2397     8.9263 Cl    138 CCL4  -0.0812 
 689 CL     -19.0066    14.7154     8.7687 Cl    138 CCL4  -0.0812 
 690 CL     -17.1458    16.6787     7.7304 Cl    138 CCL4  -0.0812 
 691 CL      22.6122    11.8290    -0.1813 Cl    139 CCL4  -0.0812 
 692 C       21.2206    11.5737     0.8912 C.3   139 CCL4   0.3246 
 693 CL      21.3542     9.9935     1.6918 Cl    139 CCL4  -0.0812 
 694 CL      19.7304    11.6197    -0.0694 Cl    139 CCL4  -0.0812 
 695 CL      21.1780    12.8549     2.1213 Cl    139 CCL4  -0.0812 
 696 CL     -21.8421    17.5683     4.0236 Cl    140 CCL4  -0.0812 
 697 C      -20.4870    16.9922     5.0117 C.3   140 CCL4   0.3246 
 698 CL     -19.9645    18.2896     6.1002 Cl    140 CCL4  -0.0812 
 699 CL     -19.1325    16.5330     3.9612 Cl    140 CCL4  -0.0812 
 700 CL     -21.0098    15.5863     5.9617 Cl    140 CCL4  -0.0812 
 701 CL     -24.0340     6.3961     7.7934 Cl    141 CCL4  -0.0812 
 702 C      -25.6374     6.2885     8.5499 C.3   141 CCL4   0.3246 
 703 CL     -26.1329     7.8919     9.1331 Cl    141 CCL4  -0.0812 
 704 CL     -25.5717     5.1593     9.9188 Cl    141 CCL4  -0.0812 
 705 CL     -26.8130     5.7039     7.3556 Cl    141 CCL4  -0.0812 
 706 CL     -18.8497    11.4091     1.3752 Cl    142 CCL4  -0.0812 
 707 C      -18.0235    12.9723     1.2292 C.3   142 CCL4   0.3246 
 708 CL     -16.8931    13.1728     2.5859 Cl    142 CCL4  -0.0812 
 709 CL     -19.2208    14.2822     1.2585 Cl    142 CCL4  -0.0812 
 710 CL     -17.1337    13.0245    -0.3064 Cl    142 CCL4  -0.0812 
 711 CL     -19.1027     4.9060     7.6160 Cl    143 CCL4  -0.0812 
 712 C      -18.9975     6.5544     8.2634 C.3   143 CCL4   0.3246 
 713 CL     -19.0955     6.5024    10.0359 Cl    143 CCL4  -0.0812 
 714 CL     -20.3403     7.5187     7.6203 Cl    143 CCL4  -0.0812 
 715 CL     -17.4553     7.2912     7.7799 Cl    143 CCL4  -0.0812 
 716 CL     -20.2907    12.3527     4.4837 Cl    144 CCL4  -0.0812 
 717 C      -20.1720    10.8976     5.4954 C.3   144 CCL4   0.3246 
 718 CL     -21.6727     9.9625     5.3713 Cl    144 CCL4  -0.0812 
 719 CL     -19.9177    11.3780     7.1854 Cl    144 CCL4  -0.0812 
 720 CL     -18.8136     9.8944     4.9443 Cl    144 CCL4  -0.0812 
 721 CL     -27.3303     1.1592     0.6408 Cl    145 CCL4  -0.0812 
 722 C      -25.8470     1.9529     1.2000 C.3   145 CCL4   0.3246 
 723 CL     -24.6237     0.7318     1.5950 Cl    145 CCL4  -0.0812 
 724 CL     -26.2093     2.9127     2.6424 Cl    145 CCL4  -0.0812 
 725 CL     -25.2253     3.0162    -0.0732 Cl    145 CCL4  -0.0812 
 726 CL     -19.3819     3.3911     2.1055 Cl    146 CCL4  -0.0812 
 727 C      -19.7536     2.6921     0.5179 C.3   146 CCL4   0.3246 
 728 CL     -21.2182     1.6967     0.6393 Cl    146 CCL4  -0.0812 
 729 CL     -18.3929     1.6860    -0.0197 Cl    146 CCL4  -0.0812 
 730 CL     -20.0238     3.9979    -0.6529 Cl    146 CCL4  -0.0812 
 731 CL     -24.6853     5.6331     4.2983 Cl    147 CCL4  -0.0812 
 732 C      -23.0188     5.6861     3.6873 C.3   147 CCL4   0.3246 
 733 CL     -22.8706     4.6249     2.2704 Cl    147 CCL4  -0.0812 
 734 CL     -21.8990     5.1430     4.9552 Cl    147 CCL4  -0.0812 
 735 CL     -22.6199     7.3509     3.2232 Cl    147 CCL4  -0.0812 
 736 CL     -26.2820     2.3134     6.0473 Cl    148 CCL4  -0.0812 
 737 C      -25.2396     1.7037     7.3432 C.3   148 CCL4   0.3246 
 738 CL     -23.8715     2.8130     7.5500 Cl    148 CCL4  -0.0812 
 739 CL     -24.6326     0.0901     6.9242 Cl    148 CCL4  -0.0812 
 740 CL     -26.1742     1.6047     8.8477 Cl    148 CCL4  -0.0812 
 741 CL     -21.6448     9.9205    -0.2167 Cl    149 CCL4  -0.0812 
 742 C      -22.7516    11.1302     0.4620 C.3   149 CCL4   0.3246 
 743 CL     -22.8448    10.9212     2.2192 Cl    149 CCL4  -0.0812 
 744 CL     -24.3607    10.9301    -0.2572 Cl    149 CCL4  -0.0812 
 745 CL     -22.1539    12.7595     0.1062 Cl    149 CCL4  -0.0812 
 746 CL     -20.1198    -0.0539     3.5175 Cl    150 CCL4  -0.0812 
 747 C      -20.8447     0.7671     4.9148 C.3   150 CCL4   0.3246 
 748 CL     -21.0858    -0.4047     6.2250 Cl    150 CCL4  -0.0812 
 749 CL     -22.4049     1.4696     4.4362 Cl    150 CCL4  -0.0812 
 750 CL     -19.7666     2.0569     5.4844 Cl    150 CCL4  -0.0812 
 751 CL     -22.5725     7.7691    10.7693 Cl    151 CCL4  -0.0812 
 752 C      -22.4454     9.4916    10.3498 C.3   151 CCL4   0.3246 
 753 CL     -23.4561    10.4452    11.4559 Cl    151 CCL4  -0.0812 
 754 CL     -23.0033     9.7424     8.6841 Cl    151 CCL4  -0.0812 
 755 CL     -20.7530    10.0135    10.4916 Cl    151 CCL4  -0.0812 
 756 CL     -22.5677    13.4854     9.1303 Cl    152 CCL4  -0.0812 
 757 C      -23.9893    13.4890     8.0639 C.3   152 CCL4   0.3246 
 758 CL     -25.3095    12.5752     8.8244 Cl    152 CCL4  -0.0812 
 759 CL     -23.5669    12.7307     6.5160 Cl    152 CCL4  -0.0812 
 760 CL     -24.5160    15.1621     7.7826 Cl    152 CCL4  -0.0812 
 761 CL     -23.8659     2.2752    11.4525 Cl    153 CCL4  -0.0812 
 762 C      -22.1670     2.1301    10.9604 C.3   153 CCL4   0.3246 
 763 CL     -21.6504     3.6342    10.1655 Cl    153 CCL4  -0.0812 
 764 CL     -21.9945     0.7629     9.8372 Cl    153 CCL4  -0.0812 
 765 CL     -21.1627     1.8509    12.3978 Cl    153 CCL4  -0.0812 
 766 CL     -23.4863    14.4242     3.3849 Cl    154 CCL4  -0.0812 
 767 C      -25.2340    14.5770     3.1071 C.3   154 CCL4   0.3246 
 768 CL     -25.5668    16.0843     2.2288 Cl    154 CCL4  -0.0812 
 769 CL     -26.0933    14.6030     4.6602 Cl    154 CCL4  -0.0812 
 770 CL     -25.7980    13.1922     2.1546 Cl    154 CCL4  -0.0812 
 771 CL     -14.3928   -12.0085   -16.5545 Cl    155 CCL4  -0.0812 
 772 C      -14.8304   -10.3620   -16.0562 C.3   155 CCL4   0.3246 
 773 CL     -16.5084   -10.0224   -16.5328 Cl    155 CCL4  -0.0812 
 774 CL     -13.7453    -9.2056   -16.8552 Cl    155 CCL4  -0.0812 
 775 CL     -14.6724   -10.2143   -14.2913 Cl    155 CCL4  -0.0812 
 776 CL      -2.4390   -12.8688   -19.8684 Cl    156 CCL4  -0.0812 
 777 C       -1.9075   -12.6184   -18.1944 C.3   156 CCL4   0.3246 
 778 CL      -2.6139   -13.8663   -17.1479 Cl    156 CCL4  -0.0812 
 779 CL      -2.4394   -11.0168   -17.6502 Cl    156 CCL4  -0.0812 
 780 CL      -0.1384   -12.7188   -18.1111 Cl    156 CCL4  -0.0812 
 781 CL      -4.7717    19.9921   -11.2776 Cl    157 CCL4  -0.0812 
 782 C       -4.7327    18.6279   -12.4106 C.3   157 CCL4   0.3246 
 783 CL      -5.8871    17.3873   -11.8741 Cl    157 CCL4  -0.0812 
 784 CL      -3.0951    17.9387   -12.4567 Cl    157 CCL4  -0.0812 
 785 CL      -5.1791    19.1963   -14.0331 Cl    157 CCL4  -0.0812 
 786 CL     -10.9957   -11.4165   -15.1045 Cl    158 CCL4  -0.0812 
 787 C      -10.4676   -13.1039   -14.9287 C.3   158 CCL4   0.3246 
 788 CL     -10.6787   -13.6140   -13.2429 Cl    158 CCL4  -0.0812 
 789 CL      -8.7573   -13.2495   -15.3738 Cl    158 CCL4  -0.0812 
 790 CL     -11.4348   -14.1427   -15.9946 Cl    158 CCL4  -0.0812 
 791 CL      -1.8702   -18.9083     0.1867 Cl    159 CCL4  -0.0812 
 792 C       -3.4643   -18.8402    -0.5880 C.3   159 CCL4   0.3246 
 793 CL      -3.2557   -18.8165    -2.3479 Cl    159 CCL4  -0.0812 
 794 CL      -4.3171   -17.3703    -0.0705 Cl    159 CCL4  -0.0812 
 795 CL      -4.4074   -20.2706    -0.1262 Cl    159 CCL4  -0.0812 
 796 CL      -9.5306    -3.4250   -15.8096 Cl    160 CCL4  -0.0812 
 797 C       -8.5792    -2.0307   -15.2591 C.3   160 CCL4   0.3246 
 798 CL      -9.4338    -1.2315   -13.9261 Cl    160 CCL4  -0.0812 
 799 CL      -8.3715    -0.8983   -16.6111 Cl    160 CCL4  -0.0812 
 800 CL      -6.9853    -2.5671   -14.6881 Cl    160 CCL4  -0.0812 
 801 CL      -5.6048   -14.9603   -15.3145 Cl    161 CCL4  -0.0812 
 802 C       -4.6819   -16.3253   -14.6568 C.3   161 CCL4   0.3246 
 803 CL      -3.1199   -15.7475   -14.0449 Cl    161 CCL4  -0.0812 
 804 CL      -4.4054   -17.5235   -15.9359 Cl    161 CCL4  -0.0812 
 805 CL      -5.5984   -17.0718   -13.3341 Cl    161 CCL4  -0.0812 
 806 CL      -9.0026    18.4304   -13.8442 Cl    162 CCL4  -0.0812 
 807 C       -9.4688    19.4158   -12.4429 C.3   162 CCL4   0.3246 
 808 CL      -8.1732    20.5642   -12.0614 Cl    162 CCL4  -0.0812 
 809 CL      -9.7453    18.3563   -11.0483 Cl    162 CCL4  -0.0812 
 810 CL     -10.9525    20.3141   -12.8156 Cl    162 CCL4  -0.0812 
 811 CL       5.9286    -5.4634   -16.9964 Cl    163 CCL4  -0.0812 
 812 C        6.9734    -4.1392   -17.5437 C.3   163 CCL4   0.3246 
 813 CL       6.7002    -2.7190   -16.5138 Cl    163 CCL4  -0.0812 
 814 CL       6.5969    -3.7425   -19.2332 Cl    163 CCL4  -0.0812 
 815 CL       8.6714    -4.6398   -17.4327 Cl    163 CCL4  -0.0812 
 816 CL      -0.8165    -1.5918   -20.2011 Cl    164 CCL4  -0.0812 
 817 C       -2.3124    -2.3279   -19.5923 C.3   164 CCL4   0.3246 
 818 CL      -2.4449    -3.9985   -20.1834 Cl    164 CCL4  -0.0812 
 819 CL      -3.6957    -1.3742   -20.1613 Cl    164 CCL4  -0.0812 
 820 CL      -2.2923    -2.3394   -17.8202 Cl    164 CCL4  -0.0812 
 821 CL      -7.2385    -1.4120    19.4299 Cl    165 CCL4  -0.0812 
 822 C       -6.8955    -2.1533    17.8519 C.3   165 CCL4   0.3246 
 823 CL      -5.9335    -1.0296    16.8741 Cl    165 CCL4  -0.0812 
 824 CL      -8.4234    -2.5073    17.0183 Cl    165 CCL4  -0.0812 
 825 CL      -5.9844    -3.6617    18.0762 Cl    165 CCL4  -0.0812 
 826 CL      -6.9706   -15.1585    -1.5142 Cl    166 CCL4  -0.0812 
 827 C       -7.2675   -15.7778    -3.1519 C.3   166 CCL4   0.3246 
 828 CL      -6.7883   -14.5490    -4.3417 Cl    166 CCL4  -0.0812 
 829 CL      -8.9944   -16.1517    -3.3381 Cl    166 CCL4  -0.0812 
 830 CL      -6.3162   -17.2539    -3.4137 Cl    166 CCL4  -0.0812 
 831 CL     -14.2024   -15.1579    -0.3333 Cl    167 CCL4  -0.0812 
 832 C      -12.7089   -14.6861    -1.1731 C.3   167 CCL4   0.3246 
 833 CL     -11.2984   -15.2466    -0.2512 Cl    167 CCL4  -0.0812 
 834 CL     -12.6456   -12.9175    -1.3288 Cl    167 CCL4  -0.0812 
 835 CL     -12.6849   -15.4286    -2.7848 Cl    167 CCL4  -0.0812 
 836 CL      -3.6597   -16.5679    20.5254 Cl    168 CCL4  -0.0812 
 837 C       -2.0643   -17.3375    20.3712 C.3   168 CCL4   0.3246 
 838 CL      -1.8372   -18.5140    21.6820 Cl    168 CCL4  -0.0812 
 839 CL      -0.7995   -16.0966    20.4650 Cl    168 CCL4  -0.0812 
 840 CL      -1.9547   -18.1751    18.8086 Cl    168 CCL4  -0.0812 
 841 CL      -5.4853   -10.8379    19.6083 Cl    169 CCL4  -0.0812 
 842 C       -6.3622   -12.3420    19.9616 C.3   169 CCL4   0.3246 
 843 CL      -8.1103   -12.0311    19.9233 Cl    169 CCL4  -0.0812 
 844 CL      -5.9066   -12.9343    21.5714 Cl    169 CCL4  -0.0812 
 845 CL      -5.9489   -13.5692    18.7451 Cl    169 CCL4  -0.0812 
 846 CL      -7.8341   -18.8159   -15.8090 Cl    170 CCL4  -0.0812 
 847 C       -9.0179   -17.4943   -15.8492 C.3   170 CCL4   0.3246 
 848 CL      -8.5652   -16.3428   -17.1242 Cl    170 CCL4  -0.0812 
 849 CL      -9.0401   -16.6710   -14.2764 Cl    170 CCL4  -0.0812 
 850 CL     -10.6322   -18.1522   -16.1896 Cl    170 CCL4  -0.0812 
 851 CL      10.9963   -13.5386   -13.6073 Cl    171 CCL4  -0.0812 
 852 C       10.9452   -15.2858   -13.9195 C.3   171 CCL4   0.3246 
 853 CL       9.3463   -15.9175   -13.4932 Cl    171 CCL4  -0.0812 
 854 CL      12.1791   -16.0976   -12.9349 Cl    171 CCL4  -0.0812 
 855 CL      11.2507   -15.5969   -15.6405 Cl    171 CCL4  -0.0812 
 856 CL      10.9318    18.5084   -12.9008 Cl    172 CCL4  -0.0812 
 857 C       10.0926    20.0373   -13.2394 C.3   172 CCL4   0.3246 
 858 CL      10.9282    20.8856   -14.5563 Cl    172 CCL4  -0.0812 
 859 CL      10.0957    21.0457   -11.7773 Cl    172 CCL4  -0.0812 
 860 CL       8.4168    19.7095   -13.7290 Cl    172 CCL4  -0.0812 
 861 CL       9.6479   -14.3228    -8.0768 Cl    173 CCL4  -0.0812 
 862 C        8.3694   -15.5016    -8.4212 C.3   173 CCL4   0.3246 
 863 CL       8.1930   -15.6774   -10.1768 Cl    173 CCL4  -0.0812 
 864 CL       6.8474   -14.9253    -7.7215 Cl    173 CCL4  -0.0812 
 865 CL       8.7870   -17.0730    -7.7079 Cl    173 CCL4  -0.0812 
 866 CL     -12.7528    -1.0385   -15.2261 Cl    174 CCL4  -0.0812 
 867 C      -13.5847    -1.8504   -13.8860 C.3   174 CCL4   0.3246 
 868 CL     -15.3365    -1.7916   -14.1636 Cl    174 CCL4  -0.0812 
 869 CL     -13.1998    -1.0210   -12.3643 Cl    174 CCL4  -0.0812 
 870 CL     -13.0522    -3.5444   -13.7958 Cl    174 CCL4  -0.0812 
 871 CL       5.7742   -16.8631    16.5233 Cl    175 CCL4  -0.0812 
 872 C        6.3026   -15.2037    16.8762 C.3   175 CCL4   0.3246 
 873 CL       7.3697   -15.2086    18.2963 Cl    175 CCL4  -0.0812 
 874 CL       4.8811   -14.1909    17.2091 Cl    175 CCL4  -0.0812 
 875 CL       7.1894   -14.5550    15.4791 Cl    175 CCL4  -0.0812 
 876 CL      -8.9931    18.8110    -6.0283 Cl    176 CCL4  -0.0812 
 877 C       -7.9610    17.8940    -7.1459 C.3   176 CCL4   0.3246 
 878 CL      -8.9478    16.7135    -8.0310 Cl    176 CCL4  -0.0812 
 879 CL      -6.7121    17.0342    -6.2240 Cl    176 CCL4  -0.0812 
 880 CL      -7.1888    19.0078    -8.2965 Cl    176 CCL4  -0.0812 
 881 CL      -1.8781   -14.3830    -5.0565 Cl    177 CCL4  -0.0812 
 882 C       -1.9012   -14.6609    -3.3025 C.3   177 CCL4   0.3246 
 883 CL      -3.5594   -15.0052    -2.7812 Cl    177 CCL4  -0.0812 
 884 CL      -1.3116   -13.2122    -2.4596 Cl    177 CCL4  -0.0812 
 885 CL      -0.8659   -16.0494    -2.9093 Cl    177 CCL4  -0.0812 
 886 CL       9.1493    19.3223    -8.7086 Cl    178 CCL4  -0.0812 
 887 C        8.7336    17.6506    -9.1384 C.3   178 CCL4   0.3246 
 888 CL      10.1817    16.6311    -9.0020 Cl    178 CCL4  -0.0812 
 889 CL       8.1276    17.6035   -10.8059 Cl    178 CCL4  -0.0812 
 890 CL       7.4777    17.0464    -8.0374 Cl    178 CCL4  -0.0812 
 891 CL      -3.8074   -16.4070   -10.3728 Cl    179 CCL4  -0.0812 
 892 C       -2.6379   -15.2841    -9.6554 C.3   179 CCL4   0.3246 
 893 CL      -1.7971   -14.4043   -10.9484 Cl    179 CCL4  -0.0812 
 894 CL      -1.4561   -16.1961    -8.6928 Cl    179 CCL4  -0.0812 
 895 CL      -3.4973   -14.1351    -8.6101 Cl    179 CCL4  -0.0812 
 896 CL      -5.0850   -13.2162   -12.1646 Cl    180 CCL4  -0.0812 
 897 C       -6.6925   -12.9297   -11.4730 C.3   180 CCL4   0.3246 
 898 CL      -6.5214   -12.3173    -9.8179 Cl    180 CCL4  -0.0812 
 899 CL      -7.5949   -14.4575   -11.4598 Cl    180 CCL4  -0.0812 
 900 CL      -7.5634   -11.7282   -12.4474 Cl    180 CCL4  -0.0812 
 901 CL       0.9376    19.2523   -11.5786 Cl    181 CCL4  -0.0812 
 902 C       -0.1242    19.7612   -10.2511 C.3   181 CCL4   0.3246 
 903 CL      -1.3678    20.8523   -10.8884 Cl    181 CCL4  -0.0812 
 904 CL       0.8268    20.6095    -9.0124 Cl    181 CCL4  -0.0812 
 905 CL      -0.8981    18.3326    -9.5333 Cl    181 CCL4  -0.0812 
 906 CL      -8.7480    -1.7824    -5.5448 Cl    182 CCL4  -0.0812 
 907 C       -8.2762    -1.3945    -3.8805 C.3   182 CCL4   0.3246 
 908 CL      -7.1936    -2.6579    -3.2649 Cl    182 CCL4  -0.0812 
 909 CL      -9.7270    -1.3100    -2.8649 Cl    182 CCL4  -0.0812 
 910 CL      -7.4387     0.1696    -3.8485 Cl    182 CCL4  -0.0812 
 911 CL      -2.4595    21.9779    -5.7156 Cl    183 CCL4  -0.0812 
 912 C       -3.1630    20.4734    -6.3456 C.3   183 CCL4   0.3246 
 913 CL      -3.4676    20.6472    -8.0820 Cl    183 CCL4  -0.0812 
 914 CL      -4.6988    20.1371    -5.5233 Cl    183 CCL4  -0.0812 
 915 CL      -2.0332    19.1304    -6.0728 Cl    183 CCL4  -0.0812 
 916 CL       0.8836   -10.4036    -9.0536 Cl    184 CCL4  -0.0812 
 917 C        1.1422   -11.6704    -7.8402 C.3   184 CCL4   0.3246 
 918 CL      -0.1010   -12.9197    -8.0168 Cl    184 CCL4  -0.0812 
 919 CL       1.0473   -10.9615    -6.2168 Cl    184 CCL4  -0.0812 
 920 CL       2.7396   -12.4023    -8.0757 Cl    184 CCL4  -0.0812 
 921 CL      -8.1521   -17.6854    -6.5770 Cl    185 CCL4  -0.0812 
 922 C       -7.1823   -16.6646    -7.6570 C.3   185 CCL4   0.3246 
 923 CL      -7.1230   -17.4017    -9.2700 Cl    185 CCL4  -0.0812 
 924 CL      -5.5351   -16.5238    -7.0125 Cl    185 CCL4  -0.0812 
 925 CL      -7.9174   -15.0516    -7.7664 Cl    185 CCL4  -0.0812 
 926 CL       7.6825   -12.6333    -5.0990 Cl    186 CCL4  -0.0812 
 927 C        9.0692   -13.3849    -4.2860 C.3   186 CCL4   0.3246 
 928 CL      10.5804   -12.7647    -4.9839 Cl    186 CCL4  -0.0812 
 929 CL       8.9967   -15.1479    -4.4913 Cl    186 CCL4  -0.0812 
 930 CL       9.0124   -12.9911    -2.5593 Cl    186 CCL4  -0.0812 
 931 CL     -10.4633   -16.6021   -10.6813 Cl    187 CCL4  -0.0812 
 932 C      -11.4013   -17.3576    -9.3764 C.3   187 CCL4   0.3246 
 933 CL     -13.0833   -17.5828    -9.9047 Cl    187 CCL4  -0.0812 
 934 CL     -11.3708   -16.3132    -7.9401 Cl    187 CCL4  -0.0812 
 935 CL     -10.6838   -18.9321    -8.9776 Cl    187 CCL4  -0.0812 
 936 CL       9.4545    -2.8775    -8.9247 Cl    188 CCL4  -0.0812 
 937 C        9.8169    -2.7656   -10.6582 C.3   188 CCL4   0.3246 
 938 CL      11.0494    -1.5186   -10.9293 Cl    188 CCL4  -0.0812 
 939 CL       8.3447    -2.3275   -11.5437 Cl    188 CCL4  -0.0812 
 940 CL      10.4138    -4.3346   -11.2363 Cl    188 CCL4  -0.0812 
 941 CL      -6.1894    15.9971    -2.7804 Cl    189 CCL4  -0.0812 
 942 C       -7.2342    17.3199    -2.2191 C.3   189 CCL4   0.3246 
 943 CL      -7.1510    17.4383    -0.4484 Cl    189 CCL4  -0.0812 
 944 CL      -8.9102    17.0013    -2.7135 Cl    189 CCL4  -0.0812 
 945 CL      -6.6876    18.8477    -2.9366 Cl    189 CCL4  -0.0812 
 946 CL      -5.4125    -8.9509   -17.2692 Cl    190 CCL4  -0.0812 
 947 C       -6.3444    -9.7223   -15.9724 C.3   190 CCL4   0.3246 
 948 CL      -7.9190   -10.2151   -16.6162 Cl    190 CCL4  -0.0812 
 949 CL      -6.5896    -8.5752   -14.6389 Cl    190 CCL4  -0.0812 
 950 CL      -5.4683   -11.1474   -15.3757 Cl    190 CCL4  -0.0812 
 951 CL      -5.7723    -5.3525    -9.2679 Cl    191 CCL4  -0.0812 
 952 C       -6.1499    -5.7118   -10.9672 C.3   191 CCL4   0.3246 
 953 CL      -7.0751    -7.2241   -11.0672 Cl    191 CCL4  -0.0812 
 954 CL      -4.6442    -5.8830   -11.8918 Cl    191 CCL4  -0.0812 
 955 CL      -7.1090    -4.3840   -11.6485 Cl    191 CCL4  -0.0812 
 956 CL      -9.4743    -6.2396   -13.6601 Cl    192 CCL4  -0.0812 
 957 C      -10.6749    -7.3555   -12.9802 C.3   192 CCL4   0.3246 
 958 CL      -9.9022    -8.9174   -12.6411 Cl    192 CCL4  -0.0812 
 959 CL     -11.9874    -7.5907   -14.1492 Cl    192 CCL4  -0.0812 
 960 CL     -11.3363    -6.6753   -11.4782 Cl    192 CCL4  -0.0812 
 961 CL      10.5044    -9.6703    -3.0314 Cl    193 CCL4  -0.0812 
 962 C       10.5608    -9.1945    -1.3213 C.3   193 CCL4   0.3246 
 963 CL       9.7669   -10.4276    -0.3228 Cl    193 CCL4  -0.0812 
 964 CL       9.7199    -7.6507    -1.1101 Cl    193 CCL4  -0.0812 
 965 CL      12.2514    -9.0204    -0.8152 Cl    193 CCL4  -0.0812 
 966 CL      -5.4184    -5.9205   -19.1435 Cl    194 CCL4  -0.0812 
 967 C       -6.4865    -4.8903   -18.1675 C.3   194 CCL4   0.3246 
 968 CL      -6.8049    -5.6745   -16.6086 Cl    194 CCL4  -0.0812 
 969 CL      -8.0207    -4.6334   -19.0256 Cl    194 CCL4  -0.0812 
 970 CL      -5.6991    -3.3272   -17.8881 Cl    194 CCL4  -0.0812 
 971 CL     -10.6754    -0.6212    -9.3519 Cl    195 CCL4  -0.0812 
 972 C      -10.1817    -2.3290    -9.3575 C.3   195 CCL4   0.3246 
 973 CL     -11.1211    -3.2115    -8.1416 Cl    195 CCL4  -0.0812 
 974 CL      -8.4536    -2.4600    -8.9691 Cl    195 CCL4  -0.0812 
 975 CL     -10.4816    -3.0339   -10.9596 Cl    195 CCL4  -0.0812 
 976 CL     -10.7871    -9.6804   -18.9282 Cl    196 CCL4  -0.0812 
 977 C      -10.0233    -8.0769   -18.9832 C.3   196 CCL4   0.3246 
 978 CL     -10.9545    -7.0130   -20.0589 Cl    196 CCL4  -0.0812 
 979 CL      -8.3638    -8.2327   -19.6012 Cl    196 CCL4  -0.0812 
 980 CL      -9.9920    -7.3787   -17.3486 Cl    196 CCL4  -0.0812 
 981 CL       8.9561   -11.6742   -10.7600 Cl    197 CCL4  -0.0812 
 982 C        7.7360   -10.9251    -9.7082 C.3   197 CCL4   0.3246 
 983 CL       8.4077   -10.7189    -8.0770 Cl    197 CCL4  -0.0812 
 984 CL       6.3012   -11.9638    -9.6262 Cl    197 CCL4  -0.0812 
 985 CL       7.2729    -9.3443   -10.3685 Cl    197 CCL4  -0.0812 
 986 CL       9.3511    -7.8014   -12.7596 Cl    198 CCL4  -0.0812 
 987 C        9.0436    -6.9009   -14.2562 C.3   198 CCL4   0.3246 
 988 CL       8.0489    -7.8874   -15.3471 Cl    198 CCL4  -0.0812 
 989 CL      10.5914    -6.5171   -15.0384 Cl    198 CCL4  -0.0812 
 990 CL       8.1822    -5.3976   -13.8762 Cl    198 CCL4  -0.0812 
 991 CL      -1.6804    -5.5660    -3.7359 Cl    199 CCL4  -0.0812 
 992 C       -3.4501    -5.6104    -3.6282 C.3   199 CCL4   0.3246 
 993 CL      -3.9532    -7.0763    -2.7607 Cl    199 CCL4  -0.0812 
 994 CL      -4.1462    -5.6155    -5.2636 Cl    199 CCL4  -0.0812 
 995 CL      -4.0129    -4.1786    -2.7440 Cl    199 CCL4  -0.0812 
 996 CL      -4.1516    -8.6852    -9.2380 Cl    200 CCL4  -0.0812 
 997 C       -3.3633    -9.4614   -10.6258 C.3   200 CCL4   0.3246 
 998 CL      -4.5532    -9.7102   -11.9157 Cl    200 CCL4  -0.0812 
 999 CL      -2.7049   -11.0266   -10.1209 Cl    200 CCL4  -0.0812 
1000 CL      -2.0467    -8.4337   -11.2290 Cl    200 CCL4  -0.0812 
1001 CL       0.4502    -6.7510    -9.3365 Cl    201 CCL4  -0.0812 
1002 C       -0.6801    -6.4936    -7.9917 C.3   201 CCL4   0.3246 
1003 CL      -2.1591    -5.7183    -8.5943 Cl    201 CCL4  -0.0812 
1004 CL       0.0863    -5.4514    -6.7813 Cl    201 CCL4  -0.0812 
1005 CL      -1.0966    -8.0490    -7.2471 Cl    201 CCL4  -0.0812 
1006 CL      -9.4312   -12.5816    -3.2920 Cl    202 CCL4  -0.0812 
1007 C      -10.2763   -12.2072    -4.8081 C.3   202 CCL4   0.3246 
1008 CL     -11.4499   -10.9140    -4.5029 Cl    202 CCL4  -0.0812 
1009 CL     -11.1158   -13.6562    -5.3951 Cl    202 CCL4  -0.0812 
1010 CL      -9.1150   -11.6745    -6.0407 Cl    202 CCL4  -0.0812 
1011 CL      -9.2734    -6.3055    -8.4245 Cl    203 CCL4  -0.0812 
1012 C       -9.2321    -7.9733    -7.8150 C.3   203 CCL4   0.3246 
1013 CL     -10.0367    -9.0560    -8.9691 Cl    203 CCL4  -0.0812 
1014 CL     -10.0767    -8.0459    -6.2599 Cl    203 CCL4  -0.0812 
1015 CL      -7.5467    -8.4872    -7.5954 Cl    203 CCL4  -0.0812 
1016 CL       7.2578    -4.2124    -4.9189 Cl    204 CCL4  -0.0812 
1017 C        7.7509    -5.3177    -3.6248 C.3   204 CCL4   0.3246 
1018 CL       8.4357    -6.7929    -4.3366 Cl    204 CCL4  -0.0812 
1019 CL       6.3463    -5.7368    -2.6222 Cl    204 CCL4  -0.0812 
1020 CL       8.9735    -4.5157    -2.6252 Cl    204 CCL4  -0.0812 
1021 CL      -2.8662    -0.0596    -6.6505 Cl    205 CCL4  -0.0812 
1022 C       -3.3086    -1.7753    -6.6914 C.3   205 CCL4   0.3246 
1023 CL      -2.0578    -2.7130    -5.8537 Cl    205 CCL4  -0.0812 
1024 CL      -3.4374    -2.3245    -8.3756 Cl    205 CCL4  -0.0812 
1025 CL      -4.8701    -1.9996    -5.8781 Cl    205 CCL4  -0.0812 
1026 CL     -13.1858    -3.6402    -5.3968 Cl    206 CCL4  -0.0812 
1027 C      -12.3007    -4.5874    -4.1850 C.3   206 CCL4   0.3246 
1028 CL     -12.9734    -6.2273    -4.1017 Cl    206 CCL4  -0.0812 
1029 CL     -12.4577    -3.8022    -2.6004 Cl    206 CCL4  -0.0812 
1030 CL     -10.5879    -4.6790    -4.6418 Cl    206 CCL4  -0.0812 
1031 CL      -7.6332    -9.5035    -3.6122 Cl    207 CCL4  -0.0812 
1032 C       -8.1410    -7.9792    -2.8599 C.3   207 CCL4   0.3246 
1033 CL      -7.5095    -7.9056    -1.2038 Cl    207 CCL4  -0.0812 
1034 CL      -9.9146    -7.8965    -2.8113 Cl    207 CCL4  -0.0812 
1035 CL      -7.5022    -6.6165    -3.8055 Cl    207 CCL4  -0.0812 
1036 CL      -4.2080   -11.5576    -4.0056 Cl    208 CCL4  -0.0812 
1037 C       -4.2928   -10.9071    -5.6531 C.3   208 CCL4   0.3246 
1038 CL      -2.7562   -11.1953    -6.4883 Cl    208 CCL4  -0.0812 
1039 CL      -4.6076    -9.1628    -5.5901 Cl    208 CCL4  -0.0812 
1040 CL      -5.6015   -11.7168    -6.5308 Cl    208 CCL4  -0.0812 
1041 CL       3.9732    -5.7958    -9.8615 Cl    209 CCL4  -0.0812 
1042 C        5.4151    -4.7773    -9.6865 C.3   209 CCL4   0.3246 
1043 CL       5.1064    -3.1831   -10.3956 Cl    209 CCL4  -0.0812 
1044 CL       6.7903    -5.5468   -10.5057 Cl    209 CCL4  -0.0812 
1045 CL       5.7877    -4.5722    -7.9687 Cl    209 CCL4  -0.0812 
1046 CL     -13.6075    -8.9192    -6.4395 Cl    210 CCL4  -0.0812 
1047 C      -14.0529    -7.7958    -7.7382 C.3   210 CCL4   0.3246 
1048 CL     -12.9839    -6.3813    -7.6896 Cl    210 CCL4  -0.0812 
1049 CL     -15.7373    -7.2859    -7.5118 Cl    210 CCL4  -0.0812 
1050 CL     -13.8829    -8.5953    -9.3134 Cl    210 CCL4  -0.0812 
1051 CL     -12.6252   -11.8541    -8.2346 Cl    211 CCL4  -0.0812 
1052 C      -12.0021   -12.4605    -9.7817 C.3   211 CCL4   0.3246 
1053 CL     -12.8628   -13.9492   -10.2190 Cl    211 CCL4  -0.0812 
1054 CL     -10.2675   -12.8020    -9.6192 Cl    211 CCL4  -0.0812 
1055 CL     -12.2539   -11.2424   -11.0507 Cl    211 CCL4  -0.0812 
1056 CL      -1.2582    -9.3301    -3.8076 Cl    212 CCL4  -0.0812 
1057 C        0.2568    -8.8455    -3.0233 C.3   212 CCL4   0.3246 
1058 CL       1.2425    -7.9211    -4.1728 Cl    212 CCL4  -0.0812 
1059 CL       1.1417   -10.2939    -2.5067 Cl    212 CCL4  -0.0812 
1060 CL      -0.1046    -7.8368    -1.6087 Cl    212 CCL4  -0.0812 
1061 CL       2.9218   -11.1152   -17.2971 Cl    213 CCL4  -0.0812 
1062 C        3.0302    -9.4197   -17.8084 C.3   213 CCL4   0.3246 
1063 CL       3.5427    -9.3563   -19.5083 Cl    213 CCL4  -0.0812 
1064 CL       4.2146    -8.5703   -16.7942 Cl    213 CCL4  -0.0812 
1065 CL       1.4446    -8.6406   -17.6320 Cl    213 CCL4  -0.0812 
1066 CL       0.0822   -16.6251   -15.9029 Cl    214 CCL4  -0.0812 
1067 C        0.2418   -17.7696   -14.5533 C.3   214 CCL4   0.3246 
1068 CL       0.1336   -16.8872   -13.0186 Cl    214 CCL4  -0.0812 
1069 CL       1.8151   -18.5902   -14.6543 Cl    214 CCL4  -0.0812 
1070 CL      -1.0635   -18.9739   -14.6317 Cl    214 CCL4  -0.0812 
1071 CL       5.9338   -14.7479    -2.4279 Cl    215 CCL4  -0.0812 
1072 C        6.1167   -15.7579    -0.9818 C.3   215 CCL4   0.3246 
1073 CL       4.9033   -15.2811     0.2201 Cl    215 CCL4  -0.0812 
1074 CL       7.7433   -15.5379    -0.3030 Cl    215 CCL4  -0.0812 
1075 CL       5.8790   -17.4631    -1.4168 Cl    215 CCL4  -0.0812 
1076 CL       5.8492   -13.3777    21.3549 Cl    216 CCL4  -0.0812 
1077 C        6.8955   -12.0440    20.8263 C.3   216 CCL4   0.3246 
1078 CL       8.5720   -12.6178    20.7167 Cl    216 CCL4  -0.0812 
1079 CL       6.8007   -10.7154    22.0014 Cl    216 CCL4  -0.0812 
1080 CL       6.3632   -11.4667    19.2323 Cl    216 CCL4  -0.0812 
1081 CL       5.5128   -18.8671   -16.2371 Cl    217 CCL4  -0.0812 
1082 C        5.8018   -17.2035   -15.6864 C.3   217 CCL4   0.3246 
1083 CL       6.0350   -17.1980   -13.9262 Cl    217 CCL4  -0.0812 
1084 CL       4.4032   -16.1933   -16.1036 Cl    217 CCL4  -0.0812 
1085 CL       7.2529   -16.5553   -16.4810 Cl    217 CCL4  -0.0812 
1086 CL       6.8556   -10.8840   -13.7801 Cl    218 CCL4  -0.0812 
1087 C        6.6665   -12.5719   -14.2964 C.3   218 CCL4   0.3246 
1088 CL       5.0914   -12.7830   -15.0823 Cl    218 CCL4  -0.0812 
1089 CL       6.7550   -13.6340   -12.8807 Cl    218 CCL4  -0.0812 
1090 CL       7.9587   -12.9945   -15.4385 Cl    218 CCL4  -0.0812 
1091 CL       2.6490   -14.9853   -19.1053 Cl    219 CCL4  -0.0812 
1092 C        3.0387   -16.6092   -19.7126 C.3   219 CCL4   0.3246 
1093 CL       2.4315   -16.7786   -21.3743 Cl    219 CCL4  -0.0812 
1094 CL       2.2768   -17.8337   -18.6733 Cl    219 CCL4  -0.0812 
1095 CL       4.7998   -16.8415   -19.7005 Cl    219 CCL4  -0.0812 
1096 CL       2.2255    -4.0836   -12.5180 Cl    220 CCL4  -0.0812 
1097 C        3.1669    -3.8731   -14.0097 C.3   220 CCL4   0.3246 
1098 CL       4.8902    -4.1101   -13.6704 Cl    220 CCL4  -0.0812 
1099 CL       2.9152    -2.2310   -14.6341 Cl    220 CCL4  -0.0812 
1100 CL       2.6462    -5.0657   -15.2183 Cl    220 CCL4  -0.0812 
1101 CL       1.8525    -3.7991   -20.8152 Cl    221 CCL4  -0.0812 
1102 C        2.2227    -4.3232   -19.1599 C.3   221 CCL4   0.3246 
1103 CL       0.7115    -4.5697   -18.2576 Cl    221 CCL4  -0.0812 
1104 CL       3.2057    -3.0869   -18.3493 Cl    221 CCL4  -0.0812 
1105 CL       3.1328    -5.8430   -19.2220 Cl    221 CCL4  -0.0812 
1106 CL       4.6050   -15.1167   -10.4276 Cl    222 CCL4  -0.0812 
1107 C        3.2105   -14.5114   -11.3394 C.3   222 CCL4   0.3246 
1108 CL       1.7182   -14.9412   -10.4805 Cl    222 CCL4  -0.0812 
1109 CL       3.1994   -15.2321   -12.9581 Cl    222 CCL4  -0.0812 
1110 CL       3.3244   -12.7512   -11.4994 Cl    222 CCL4  -0.0812 
1111 CL       0.1119   -11.4008   -12.2858 Cl    223 CCL4  -0.0812 
1112 C       -0.4152   -11.8596   -13.9141 C.3   223 CCL4   0.3246 
1113 CL      -2.1747   -12.0893   -13.9253 Cl    223 CCL4  -0.0812 
1114 CL       0.3873   -13.3683   -14.3924 Cl    223 CCL4  -0.0812 
1115 CL       0.0188   -10.5725   -15.0527 Cl    223 CCL4  -0.0812 
1116 CL       3.5910    21.6273   -11.3258 Cl    224 CCL4  -0.0812 
1117 C        4.7969    20.3562   -11.0469 C.3   224 CCL4   0.3246 
1118 CL       4.9490    19.3575   -12.5074 Cl    224 CCL4  -0.0812 
1119 CL       4.2721    19.3417    -9.6900 Cl    224 CCL4  -0.0812 
1120 CL       6.3665    21.0946   -10.6599 Cl    224 CCL4  -0.0812 
1121 CL       4.5465    -9.1227    -1.2988 Cl    225 CCL4  -0.0812 
1122 C        5.5364   -10.4658    -1.9115 C.3   225 CCL4   0.3246 
1123 CL       6.9572    -9.8184    -2.7542 Cl    225 CCL4  -0.0812 
1124 CL       4.5734   -11.4477    -3.0338 Cl    225 CCL4  -0.0812 
1125 CL       6.0758   -11.4813    -0.5612 Cl    225 CCL4  -0.0812 
1126 CL       0.5531    -0.7489    -7.6956 Cl    226 CCL4  -0.0812 
1127 C        1.2317    -1.9193    -8.8434 C.3   226 CCL4   0.3246 
1128 CL       2.4667    -2.8946    -8.0280 Cl    226 CCL4  -0.0812 
1129 CL       1.9607    -1.0624   -10.2149 Cl    226 CCL4  -0.0812 
1130 CL      -0.0577    -2.9791    -9.4364 Cl    226 CCL4  -0.0812 
1131 CL       1.4266    -3.0298    -4.3159 Cl    227 CCL4  -0.0812 
1132 C        2.9034    -3.9545    -3.9668 C.3   227 CCL4   0.3246 
1133 CL       3.2855    -5.0109    -5.3391 Cl    227 CCL4  -0.0812 
1134 CL       2.6577    -4.9430    -2.5109 Cl    227 CCL4  -0.0812 
1135 CL       4.2534    -2.8327    -3.7139 Cl    227 CCL4  -0.0812 
1136 CL       2.8532   -16.2548    -3.6278 Cl    228 CCL4  -0.0812 
1137 C        2.5673   -14.9825    -4.8335 C.3   228 CCL4   0.3246 
1138 CL       1.5512   -15.6235    -6.1427 Cl    228 CCL4  -0.0812 
1139 CL       4.1145   -14.4266    -5.5002 Cl    228 CCL4  -0.0812 
1140 CL       1.7501   -13.6154    -4.0582 Cl    228 CCL4  -0.0812 
1141 CL       5.9473    22.5459    -5.1469 Cl    229 CCL4  -0.0812 
1142 C        5.0795    21.4785    -6.2701 C.3   229 CCL4   0.3246 
1143 CL       3.7318    20.6879    -5.4248 Cl    229 CCL4  -0.0812 
1144 CL       6.2003    20.2448    -6.8755 Cl    229 CCL4  -0.0812 
1145 CL       4.4437    22.4268    -7.6313 Cl    229 CCL4  -0.0812 
1146 CL       6.1727    -7.9480    -7.2941 Cl    230 CCL4  -0.0812 
1147 C        4.8095    -8.7034    -6.4534 C.3   230 CCL4   0.3246 
1148 CL       3.2985    -8.3088    -7.2978 Cl    230 CCL4  -0.0812 
1149 CL       4.7358    -8.0954    -4.7914 Cl    230 CCL4  -0.0812 
1150 CL       5.0430   -10.4604    -6.4266 Cl    230 CCL4  -0.0812 
1151 CL       0.0867   -10.1129    19.3150 Cl    231 CCL4  -0.0812 
1152 C       -0.6588    -8.6878    18.5619 C.3   231 CCL4   0.3246 
1153 CL      -0.0695    -7.2135    19.3573 Cl    231 CCL4  -0.0812 
1154 CL      -2.4242    -8.7891    18.7323 Cl    231 CCL4  -0.0812 
1155 CL      -0.2257    -8.6387    16.8399 Cl    231 CCL4  -0.0812 
1156 CL       4.8238    -7.6333   -13.0649 Cl    232 CCL4  -0.0812 
1157 C        3.4544    -8.6455   -12.5583 C.3   232 CCL4   0.3246 
1158 CL       3.7454    -9.2567   -10.9168 Cl    232 CCL4  -0.0812 
1159 CL       3.2856   -10.0083   -13.6797 Cl    232 CCL4  -0.0812 
1160 CL       1.9592    -7.6891   -12.5769 Cl    232 CCL4  -0.0812 
1161 CL      -3.2557    -5.7063   -15.5127 Cl    233 CCL4  -0.0812 
1162 C       -2.1939    -7.1091   -15.7519 C.3   233 CCL4   0.3246 
1163 CL      -2.8719    -8.5083   -14.8972 Cl    233 CCL4  -0.0812 
1164 CL      -0.5782    -6.7645   -15.1024 Cl    233 CCL4  -0.0812 
1165 CL      -2.0715    -7.4570   -17.4899 Cl    233 CCL4  -0.0812 
1166 CL      -0.5280    -3.2646   -14.9772 Cl    234 CCL4  -0.0812 
1167 C       -1.4557    -2.8670   -13.5203 C.3   234 CCL4   0.3246 
1168 CL      -0.6646    -1.5184   -12.6819 Cl    234 CCL4  -0.0812 
1169 CL      -1.5076    -4.2838   -12.4499 Cl    234 CCL4  -0.0812 
1170 CL      -3.1086    -2.3990   -13.9771 Cl    234 CCL4  -0.0812 
1171 CL     -14.4368   -11.6086     6.7649 Cl    235 CCL4  -0.0812 
1172 C      -14.7278    -9.9902     7.4322 C.3   235 CCL4   0.3246 
1173 CL     -15.8774    -9.1210     6.3937 Cl    235 CCL4  -0.0812 
1174 CL     -13.1912    -9.1051     7.5068 Cl    235 CCL4  -0.0812 
1175 CL     -15.4038   -10.1268     9.0671 Cl    235 CCL4  -0.0812 
1176 CL      -2.2867   -12.9418     3.8870 Cl    236 CCL4  -0.0812 
1177 C       -1.7341   -13.0112     5.5739 C.3   236 CCL4   0.3246 
1178 CL      -2.4764   -14.4035     6.3855 Cl    236 CCL4  -0.0812 
1179 CL      -2.2095   -11.5216     6.4155 Cl    236 CCL4  -0.0812 
1180 CL       0.0332   -13.1810     5.6117 Cl    236 CCL4  -0.0812 
1181 CL      -4.7383    16.7071     7.4052 Cl    237 CCL4  -0.0812 
1182 C       -4.4881    18.3875     6.8941 C.3   237 CCL4   0.3246 
1183 CL      -5.7066    18.8252     5.6805 Cl    237 CCL4  -0.0812 
1184 CL      -2.8692    18.5450     6.1881 Cl    237 CCL4  -0.0812 
1185 CL      -4.6334    19.4678     8.2973 Cl    237 CCL4  -0.0812 
1186 CL     -10.4862   -10.9137     9.4473 Cl    238 CCL4  -0.0812 
1187 C      -10.0861   -12.5708     8.9505 C.3   238 CCL4   0.3246 
1188 CL     -10.3067   -13.6714    10.3259 Cl    238 CCL4  -0.0812 
1189 CL      -8.3988   -12.6411     8.4075 Cl    238 CCL4  -0.0812 
1190 CL     -11.1525   -13.0587     7.6190 Cl    238 CCL4  -0.0812 
1191 CL      -8.9541    -2.6751     9.6116 Cl    239 CCL4  -0.0812 
1192 C       -8.5346    -0.9987    10.0047 C.3   239 CCL4   0.3246 
1193 CL      -9.3838    -0.5109    11.4876 Cl    239 CCL4  -0.0812 
1194 CL      -9.0235     0.0621     8.6648 Cl    239 CCL4  -0.0812 
1195 CL      -6.7799    -0.8829    10.2519 Cl    239 CCL4  -0.0812 
1196 CL      -5.3623   -14.1100     9.5979 Cl    240 CCL4  -0.0812 
1197 C       -5.7546   -15.8266     9.8152 C.3   240 CCL4   0.3246 
1198 CL      -4.9312   -16.4406    11.2646 Cl    240 CCL4  -0.0812 
1199 CL      -5.2108   -16.7371     8.3953 Cl    240 CCL4  -0.0812 
1200 CL      -7.5105   -16.0209     9.9971 Cl    240 CCL4  -0.0812 
1201 CL      -8.1497    17.6452     8.2172 Cl    241 CCL4  -0.0812 
1202 C       -9.8316    17.9917     8.6600 C.3   241 CCL4   0.3246 
1203 CL      -9.8632    19.3041     9.8510 Cl    241 CCL4  -0.0812 
1204 CL     -10.5762    16.5427     9.3609 Cl    241 CCL4  -0.0812 
1205 CL     -10.7368    18.4796     7.2151 Cl    241 CCL4  -0.0812 
1206 CL       7.3596    -4.6502     5.4188 Cl    242 CCL4  -0.0812 
1207 C        6.0012    -3.5651     5.0744 C.3   242 CCL4   0.3246 
1208 CL       6.3890    -1.9544     5.7105 Cl    242 CCL4  -0.0812 
1209 CL       4.5285    -4.1894     5.8483 Cl    242 CCL4  -0.0812 
1210 CL       5.7376    -3.4675     3.3231 Cl    242 CCL4  -0.0812 
1211 CL      -2.6980     0.5104     2.4331 Cl    243 CCL4  -0.0812 
1212 C       -4.0153     0.1962     3.5796 C.3   243 CCL4   0.3246 
1213 CL      -4.7967    -1.3428     3.1766 Cl    243 CCL4  -0.0812 
1214 CL      -5.2095     1.5091     3.4895 Cl    243 CCL4  -0.0812 
1215 CL      -3.3523     0.0938     5.2207 Cl    243 CCL4  -0.0812 
1216 CL      -9.4008    -2.3560     5.9010 Cl    244 CCL4  -0.0812 
1217 C       -9.2573    -1.4430     4.3868 C.3   244 CCL4   0.3246 
1218 CL      -8.5130     0.1369     4.7131 Cl    244 CCL4  -0.0812 
1219 CL     -10.8715    -1.2074     3.6890 Cl    244 CCL4  -0.0812 
1220 CL      -8.2442    -2.3491     3.2451 Cl    244 CCL4  -0.0812 
1221 CL       1.4322   -14.8223    -0.5342 Cl    245 CCL4  -0.0812 
1222 C        0.8797   -15.5939     0.9645 C.3   245 CCL4   0.3246 
1223 CL       1.3215   -17.3135     0.9373 Cl    245 CCL4  -0.0812 
1224 CL      -0.8846   -15.4313     1.0948 Cl    245 CCL4  -0.0812 
1225 CL       1.6538   -14.8071     2.3553 Cl    245 CCL4  -0.0812 
1226 CL      -3.6728   -16.2578     3.3801 Cl    246 CCL4  -0.0812 
1227 C       -4.3646   -17.6397     4.2511 C.3   246 CCL4   0.3246 
1228 CL      -6.0381   -17.2771     4.7138 Cl    246 CCL4  -0.0812 
1229 CL      -3.4086   -17.9611     5.7083 Cl    246 CCL4  -0.0812 
1230 CL      -4.3383   -19.0688     3.2023 Cl    246 CCL4  -0.0812 
1231 CL      -7.8664   -18.7429    -0.5356 Cl    247 CCL4  -0.0812 
1232 C       -8.3728   -18.4524     1.1395 C.3   247 CCL4   0.3246 
1233 CL     -10.1453   -18.4958     1.2307 Cl    247 CCL4  -0.0812 
1234 CL      -7.7880   -16.8588     1.6646 Cl    247 CCL4  -0.0812 
1235 CL      -7.6967   -19.7167     2.1889 Cl    247 CCL4  -0.0812 
1236 CL      -5.8099   -11.2052     4.9233 Cl    248 CCL4  -0.0812 
1237 C       -6.5002   -12.8246     4.6882 C.3   248 CCL4   0.3246 
1238 CL      -8.2697   -12.7309     4.7478 Cl    248 CCL4  -0.0812 
1239 CL      -5.9251   -13.9010     5.9751 Cl    248 CCL4  -0.0812 
1240 CL      -6.0014   -13.4671     3.1098 Cl    248 CCL4  -0.0812 
1241 CL     -12.8969   -16.7403     2.8210 Cl    249 CCL4  -0.0812 
1242 C      -12.3153   -15.2513     3.5929 C.3   249 CCL4   0.3246 
1243 CL     -12.6601   -15.3106     5.3338 Cl    249 CCL4  -0.0812 
1244 CL     -13.1401   -13.8555     2.8738 Cl    249 CCL4  -0.0812 
1245 CL     -10.5654   -15.0967     3.3379 Cl    249 CCL4  -0.0812 
1246 CL      -8.1591   -18.6918     7.3171 Cl    250 CCL4  -0.0812 
1247 C       -9.4718   -17.7336     6.5996 C.3   250 CCL4   0.3246 
1248 CL      -9.0089   -16.0184     6.5732 Cl    250 CCL4  -0.0812 
1249 CL     -10.9476   -17.9304     7.5661 Cl    250 CCL4  -0.0812 
1250 CL      -9.7764   -18.2968     4.9431 Cl    250 CCL4  -0.0812 
1251 CL       8.9895   -13.5294    10.2828 Cl    251 CCL4  -0.0812 
1252 C        8.7634   -14.9401     9.2293 C.3   251 CCL4   0.3246 
1253 CL       7.4628   -15.9588     9.8758 Cl    251 CCL4  -0.0812 
1254 CL      10.2637   -15.8803     9.1607 Cl    251 CCL4  -0.0812 
1255 CL       8.3423   -14.3980     7.5943 Cl    251 CCL4  -0.0812 
1256 CL      10.1138    20.7690     7.8869 Cl    252 CCL4  -0.0812 
1257 C        8.8011    20.6400     6.6989 C.3   252 CCL4   0.3246 
1258 CL       8.6333    22.1852     5.8408 Cl    252 CCL4  -0.0812 
1259 CL       7.2810    20.2547     7.5317 Cl    252 CCL4  -0.0812 
1260 CL       9.1777    19.3516     5.5356 Cl    252 CCL4  -0.0812 
1261 CL     -12.4416    -0.9351     6.8875 Cl    253 CCL4  -0.0812 
1262 C      -12.9088    -1.9855     8.2366 C.3   253 CCL4   0.3246 
1263 CL     -14.6598    -2.2631     8.1921 Cl    253 CCL4  -0.0812 
1264 CL     -12.4745    -1.1904     9.7628 Cl    253 CCL4  -0.0812 
1265 CL     -12.0638    -3.5437     8.1021 Cl    253 CCL4  -0.0812 
1266 CL       5.4636   -19.4234     4.3433 Cl    254 CCL4  -0.0812 
1267 C        5.4048   -18.3115     2.9577 C.3   254 CCL4   0.3246 
1268 CL       7.0584   -17.9203     2.4419 Cl    254 CCL4  -0.0812 
1269 CL       4.5655   -16.8178     3.4242 Cl    254 CCL4  -0.0812 
1270 CL       4.5330   -19.0820     1.6155 Cl    254 CCL4  -0.0812 
1271 CL      -9.8542    15.8643    14.9819 Cl    255 CCL4  -0.0812 
1272 C      -10.0435    15.9940    13.2209 C.3   255 CCL4   0.3246 
1273 CL     -11.6968    16.5158    12.8414 Cl    255 CCL4  -0.0812 
1274 CL      -9.7405    14.4141    12.4767 Cl    255 CCL4  -0.0812 
1275 CL      -8.8827    17.1776    12.5860 Cl    255 CCL4  -0.0812 
1276 CL       8.9077    20.3411    13.8744 Cl    256 CCL4  -0.0812 
1277 C        7.5206    20.5076    12.7772 C.3   256 CCL4   0.3246 
1278 CL       8.0692    20.3069    11.0994 Cl    256 CCL4  -0.0812 
1279 CL       6.7903    22.1150    12.9804 Cl    256 CCL4  -0.0812 
1280 CL       6.3135    19.2625    13.1602 Cl    256 CCL4  -0.0812 
1281 CL      -4.5485   -14.6641    15.3849 Cl    257 CCL4  -0.0812 
1282 C       -2.9998   -13.9762    15.9176 C.3   257 CCL4   0.3246 
1283 CL      -1.8426   -14.0061    14.5718 Cl    257 CCL4  -0.0812 
1284 CL      -2.3564   -14.9431    17.2585 Cl    257 CCL4  -0.0812 
1285 CL      -3.2457   -12.3009    16.4572 Cl    257 CCL4  -0.0812 
1286 CL      -4.6553   -12.1933    12.7040 Cl    258 CCL4  -0.0812 
1287 C       -6.4172   -12.0987    12.9094 C.3   258 CCL4   0.3246 
1288 CL      -6.7899   -11.3737    14.4884 Cl    258 CCL4  -0.0812 
1289 CL      -7.1195   -13.7278    12.8336 Cl    258 CCL4  -0.0812 
1290 CL      -7.1053   -11.1043    11.6096 Cl    258 CCL4  -0.0812 
1291 CL       0.0176    17.4207     8.0254 Cl    259 CCL4  -0.0812 
1292 C       -0.5591    17.9000     9.6343 C.3   259 CCL4   0.3246 
1293 CL      -0.7265    19.6651     9.7118 Cl    259 CCL4  -0.0812 
1294 CL       0.6075    17.3596    10.8595 Cl    259 CCL4  -0.0812 
1295 CL      -2.1384    17.1535     9.9458 Cl    259 CCL4  -0.0812 
1296 CL     -10.6812   -17.5407    11.3647 Cl    260 CCL4  -0.0812 
1297 C      -12.0849   -18.4239    12.0041 C.3   260 CCL4   0.3246 
1298 CL     -13.1342   -17.2961    12.8884 Cl    260 CCL4  -0.0812 
1299 CL     -11.5293   -19.7043    13.1036 Cl    260 CCL4  -0.0812 
1300 CL     -12.9955   -19.1546    10.6656 Cl    260 CCL4  -0.0812 
1301 CL       7.3501    -2.7824    15.1922 Cl    261 CCL4  -0.0812 
1302 C        8.3426    -2.2165    13.8315 C.3   261 CCL4   0.3246 
1303 CL       8.2959    -0.4419    13.7675 Cl    261 CCL4  -0.0812 
1304 CL       7.7063    -2.8862    12.3127 Cl    261 CCL4  -0.0812 
1305 CL      10.0209    -2.7527    14.0605 Cl    261 CCL4  -0.0812 
1306 CL      -5.1871    -8.0247     7.1296 Cl    262 CCL4  -0.0812 
1307 C       -5.8936    -8.9846     8.4428 C.3   262 CCL4   0.3246 
1308 CL      -7.6265    -9.2035     8.1475 Cl    262 CCL4  -0.0812 
1309 CL      -5.6607    -8.1376     9.9842 Cl    262 CCL4  -0.0812 
1310 CL      -5.1063   -10.5733     8.5061 Cl    262 CCL4  -0.0812 
1311 CL      -5.0903    -4.0048    14.4146 Cl    263 CCL4  -0.0812 
1312 C       -6.6379    -4.4310    13.6635 C.3   263 CCL4   0.3246 
1313 CL      -7.5001    -5.5790    14.7082 Cl    263 CCL4  -0.0812 
1314 CL      -6.3411    -5.1689    12.0772 Cl    263 CCL4  -0.0812 
1315 CL      -7.6167    -2.9661    13.4578 Cl    263 CCL4  -0.0812 
1316 CL      -8.8338    -6.2050     9.4350 Cl    264 CCL4  -0.0812 
1317 C       -9.8479    -6.6968    10.8041 C.3   264 CCL4   0.3246 
1318 CL      -9.1000    -8.0759    11.6350 Cl    264 CCL4  -0.0812 
1319 CL     -11.4569    -7.1599    10.2093 Cl    264 CCL4  -0.0812 
1320 CL      -9.9942    -5.3404    11.9390 Cl    264 CCL4  -0.0812 
1321 CL       4.8084    -9.5711     2.4461 Cl    265 CCL4  -0.0812 
1322 C        5.7422    -8.0735     2.3200 C.3   265 CCL4   0.3246 
1323 CL       7.0933    -8.3318     1.1995 Cl    265 CCL4  -0.0812 
1324 CL       6.3655    -7.6444     3.9243 Cl    265 CCL4  -0.0812 
1325 CL       4.6983    -6.7698     1.7149 Cl    265 CCL4  -0.0812 
1326 CL      -4.1635    -4.6171     6.2464 Cl    266 CCL4  -0.0812 
1327 C       -5.7356    -4.0654     6.8637 C.3   266 CCL4   0.3246 
1328 CL      -5.8383    -4.3930     8.6015 Cl    266 CCL4  -0.0812 
1329 CL      -7.0418    -4.9361     6.0343 Cl    266 CCL4  -0.0812 
1330 CL      -5.9018    -2.3178     6.5853 Cl    266 CCL4  -0.0812 
1331 CL       9.2781    -5.9583     2.8342 Cl    267 CCL4  -0.0812 
1332 C        9.1922    -4.6741     1.6184 C.3   267 CCL4   0.3246 
1333 CL      10.6098    -4.7706     0.5617 Cl    267 CCL4  -0.0812 
1334 CL       9.1780    -3.0979     2.4231 Cl    267 CCL4  -0.0812 
1335 CL       7.7149    -4.8674     0.6591 Cl    267 CCL4  -0.0812 
1336 CL      -4.9388    -6.4514     0.5885 Cl    268 CCL4  -0.0812 
1337 C       -4.9249    -4.7938     1.2164 C.3   268 CCL4   0.3246 
1338 CL      -5.4334    -4.8121     2.9133 Cl    268 CCL4  -0.0812 
1339 CL      -6.0528    -3.7978     0.2779 Cl    268 CCL4  -0.0812 
1340 CL      -3.2844    -4.1189     1.0895 Cl    268 CCL4  -0.0812 
1341 CL     -10.6619   -11.4735     2.2721 Cl    269 CCL4  -0.0812 
1342 C       -9.3781   -11.2506     1.0722 C.3   269 CCL4   0.3246 
1343 CL     -10.0531   -10.4654    -0.3687 Cl    269 CCL4  -0.0812 
1344 CL      -8.7077   -12.8335     0.6316 Cl    269 CCL4  -0.0812 
1345 CL      -8.0986   -10.2321     1.7619 Cl    269 CCL4  -0.0812 
1346 CL     -10.7903    -3.3302     0.7707 Cl    270 CCL4  -0.0812 
1347 C      -10.0859    -4.8837     0.2789 C.3   270 CCL4   0.3246 
1348 CL      -9.1732    -4.6587    -1.2223 Cl    270 CCL4  -0.0812 
1349 CL     -11.3816    -6.0620     0.0038 Cl    270 CCL4  -0.0812 
1350 CL      -8.9978    -5.4863     1.5478 Cl    270 CCL4  -0.0812 
1351 CL     -14.0201    -5.2271     2.4528 Cl    271 CCL4  -0.0812 
1352 C      -13.3797    -5.0730     4.1013 C.3   271 CCL4   0.3246 
1353 CL     -13.6338    -6.5973     4.9712 Cl    271 CCL4  -0.0812 
1354 CL     -14.2184    -3.7648     4.9541 Cl    271 CCL4  -0.0812 
1355 CL     -11.6462    -4.7009     4.0336 Cl    271 CCL4  -0.0812 
1356 CL     -10.1495    -9.9305     5.6628 Cl    272 CCL4  -0.0812 
1357 C       -9.7301    -8.3211     5.0422 C.3   272 CCL4   0.3246 
1358 CL     -10.6053    -8.0316     3.5274 Cl    272 CCL4  -0.0812 
1359 CL      -7.9843    -8.2304     4.7296 Cl    272 CCL4  -0.0812 
1360 CL     -10.1842    -7.0919     6.2410 Cl    272 CCL4  -0.0812 
1361 CL     -13.6368   -10.1712     3.6885 Cl    273 CCL4  -0.0812 
1362 C      -14.3374    -9.6830     2.1341 C.3   273 CCL4   0.3246 
1363 CL     -15.7461    -8.6377     2.4257 Cl    273 CCL4  -0.0812 
1364 CL     -14.8217   -11.1272     1.2215 Cl    273 CCL4  -0.0812 
1365 CL     -13.1260    -8.7937     1.1972 Cl    273 CCL4  -0.0812 
1366 CL       7.8823   -11.5863    13.2172 Cl    274 CCL4  -0.0812 
1367 C        6.7402   -10.5426    14.0899 C.3   274 CCL4   0.3246 
1368 CL       7.5428    -9.8509    15.5159 Cl    274 CCL4  -0.0812 
1369 CL       5.3344   -11.4965    14.6062 Cl    274 CCL4  -0.0812 
1370 CL       6.1996    -9.2327    13.0216 Cl    274 CCL4  -0.0812 
1371 CL       6.7903    -6.4958    10.7548 Cl    275 CCL4  -0.0812 
1372 C        6.9061    -5.7669     9.1416 C.3   275 CCL4   0.3246 
1373 CL       6.0542    -6.7894     7.9690 Cl    275 CCL4  -0.0812 
1374 CL       8.6135    -5.6302     8.6734 Cl    275 CCL4  -0.0812 
1375 CL       6.1625    -4.1555     9.1693 Cl    275 CCL4  -0.0812 
1376 CL      -3.0026   -10.2735    -0.8333 Cl    276 CCL4  -0.0812 
1377 C       -4.2024   -11.2092     0.0810 C.3   276 CCL4   0.3246 
1378 CL      -3.6301   -12.8772     0.2957 Cl    276 CCL4  -0.0812 
1379 CL      -5.7437   -11.2234    -0.8018 Cl    276 CCL4  -0.0812 
1380 CL      -4.4345   -10.4555     1.6692 Cl    276 CCL4  -0.0812 
1381 CL      -3.9551    -7.0845    15.8472 Cl    277 CCL4  -0.0812 
1382 C       -3.7412    -7.8535    14.2599 C.3   277 CCL4   0.3246 
1383 CL      -5.3279    -8.2666    13.5813 Cl    277 CCL4  -0.0812 
1384 CL      -2.7849    -9.3359    14.4483 Cl    277 CCL4  -0.0812 
1385 CL      -2.9014    -6.7339    13.1644 Cl    277 CCL4  -0.0812 
1386 CL      -2.5670    -2.5816    16.5782 Cl    278 CCL4  -0.0812 
1387 C       -1.1436    -3.3192    15.8190 C.3   278 CCL4   0.3246 
1388 CL       0.2759    -2.2942    16.1159 Cl    278 CCL4  -0.0812 
1389 CL      -1.4208    -3.4670    14.0727 Cl    278 CCL4  -0.0812 
1390 CL      -0.8670    -4.9322    16.5086 Cl    278 CCL4  -0.0812 
1391 CL       1.9758    -4.2995    13.1201 Cl    279 CCL4  -0.0812 
1392 C        3.3678    -4.1192    14.2097 C.3   279 CCL4   0.3246 
1393 CL       3.7052    -2.3945    14.4725 Cl    279 CCL4  -0.0812 
1394 CL       4.7913    -4.8948    13.4833 Cl    279 CCL4  -0.0812 
1395 CL       3.0002    -4.8901    15.7672 Cl    279 CCL4  -0.0812 
1396 CL     -10.1776    -8.0846    15.3346 Cl    280 CCL4  -0.0812 
1397 C      -11.6209    -7.0483    15.3153 C.3   280 CCL4   0.3246 
1398 CL     -11.1337    -5.3518    15.5169 Cl    280 CCL4  -0.0812 
1399 CL     -12.7063    -7.5134    16.6421 Cl    280 CCL4  -0.0812 
1400 CL     -12.4681    -7.2443    13.7672 Cl    280 CCL4  -0.0812 
1401 CL     -12.6527   -10.8697    14.9595 Cl    281 CCL4  -0.0812 
1402 C      -12.1058   -11.4261    13.3646 C.3   281 CCL4   0.3246 
1403 CL     -12.5386   -13.1376    13.1623 Cl    281 CCL4  -0.0812 
1404 CL     -10.3436   -11.2454    13.2505 Cl    281 CCL4  -0.0812 
1405 CL     -12.8819   -10.4518    12.0964 Cl    281 CCL4  -0.0812 
1406 CL       1.2588    -9.7163     6.3251 Cl    282 CCL4  -0.0812 
1407 C        2.5889    -8.5639     6.1015 C.3   282 CCL4   0.3246 
1408 CL       2.3783    -7.6995     4.5646 Cl    282 CCL4  -0.0812 
1409 CL       4.1292    -9.4463     6.0787 Cl    282 CCL4  -0.0812 
1410 CL       2.5855    -7.3972     7.4405 Cl    282 CCL4  -0.0812 
1411 CL       0.2566   -14.6032     8.8787 Cl    283 CCL4  -0.0812 
1412 C       -0.3724   -16.0153     9.7534 C.3   283 CCL4   0.3246 
1413 CL      -1.2494   -15.4785    11.2014 Cl    283 CCL4  -0.0812 
1414 CL       0.9790   -17.0632    10.2332 Cl    283 CCL4  -0.0812 
1415 CL      -1.4791   -16.9192     8.7017 Cl    283 CCL4  -0.0812 
1416 CL       5.0803   -13.0291     2.9467 Cl    284 CCL4  -0.0812 
1417 C        6.7611   -12.9985     3.5143 C.3   284 CCL4   0.3246 
1418 CL       7.1351   -14.5415     4.3033 Cl    284 CCL4  -0.0812 
1419 CL       6.9744   -11.6696     4.6733 Cl    284 CCL4  -0.0812 
1420 CL       7.8543   -12.7623     2.1355 Cl    284 CCL4  -0.0812 
1421 CL       2.5589   -16.6932     6.9790 Cl    285 CCL4  -0.0812 
1422 C        3.9593   -15.6425     7.2491 C.3   285 CCL4   0.3246 
1423 CL       4.0008   -15.1449     8.9519 Cl    285 CCL4  -0.0812 
1424 CL       3.8315   -14.2102     6.2059 Cl    285 CCL4  -0.0812 
1425 CL       5.4420   -16.5344     6.8609 Cl    285 CCL4  -0.0812 
1426 CL       4.9031    -9.6535     9.6827 Cl    286 CCL4  -0.0812 
1427 C        4.7870   -11.3969     9.3873 C.3   286 CCL4   0.3246 
1428 CL       3.1372   -11.7868     8.8631 Cl    286 CCL4  -0.0812 
1429 CL       5.1696   -12.2785    10.8803 Cl    286 CCL4  -0.0812 
1430 CL       5.9394   -11.8624     8.1215 Cl    286 CCL4  -0.0812 
1431 CL       4.2568    17.3007     2.2053 Cl    287 CCL4  -0.0812 
1432 C        2.6998    17.1698     1.3587 C.3   287 CCL4   0.3246 
1433 CL       2.2435    15.4584     1.2254 Cl    287 CCL4  -0.0812 
1434 CL       2.8434    17.8776    -0.2644 Cl    287 CCL4  -0.0812 
1435 CL       1.4515    18.0424     2.2698 Cl    287 CCL4  -0.0812 
1436 CL      -0.1400   -16.8508     4.6762 Cl    288 CCL4  -0.0812 
1437 C        0.2102   -18.5922     4.6919 C.3   288 CCL4   0.3246 
1438 CL      -0.8616   -19.4178     3.5507 Cl    288 CCL4  -0.0812 
1439 CL      -0.0446   -19.2416     6.3221 Cl    288 CCL4  -0.0812 
1440 CL       1.8912   -18.8714     4.2102 Cl    288 CCL4  -0.0812 
1441 CL       1.4478    -0.9404     9.3259 Cl    289 CCL4  -0.0812 
1442 C        2.8921    -1.9682     9.2930 C.3   289 CCL4   0.3246 
1443 CL       3.7055    -1.9083    10.8693 Cl    289 CCL4  -0.0812 
1444 CL       3.9898    -1.3615     8.0420 Cl    289 CCL4  -0.0812 
1445 CL       2.4306    -3.6462     8.9310 Cl    289 CCL4  -0.0812 
1446 CL       1.7746   -11.3205     3.1389 Cl    290 CCL4  -0.0812 
1447 C        1.4562   -10.9549     1.4321 C.3   290 CCL4   0.3246 
1448 CL      -0.1419   -11.5825     0.9786 Cl    290 CCL4  -0.0812 
1449 CL       2.6955   -11.7237     0.4227 Cl    290 CCL4  -0.0812 
1450 CL       1.4978    -9.1966     1.1907 Cl    290 CCL4  -0.0812 
1451 CL      -1.3637    -2.9691     4.3931 Cl    291 CCL4  -0.0812 
1452 C        0.3497    -2.5786     4.1285 C.3   291 CCL4   0.3246 
1453 CL       1.1584    -2.3533     5.6935 Cl    291 CCL4  -0.0812 
1454 CL       0.4664    -1.0852     3.1754 Cl    291 CCL4  -0.0812 
1455 CL       1.1375    -3.9048     3.2477 Cl    291 CCL4  -0.0812 
1456 CL       4.1825   -14.9269    13.4146 Cl    292 CCL4  -0.0812 
1457 C        2.4526   -14.5237    13.4505 C.3   292 CCL4   0.3246 
1458 CL       1.5092   -15.9997    13.7451 Cl    292 CCL4  -0.0812 
1459 CL       1.9817   -13.8178    11.8921 Cl    292 CCL4  -0.0812 
1460 CL       2.1343   -13.3522    14.7479 Cl    292 CCL4  -0.0812 
1461 CL      -0.8548   -11.5319    12.2676 Cl    293 CCL4  -0.0812 
1462 C       -1.4115   -10.9936    10.6721 C.3   293 CCL4   0.3246 
1463 CL      -2.2975   -12.3114     9.8836 Cl    293 CCL4  -0.0812 
1464 CL      -0.0131   -10.5460     9.6789 Cl    293 CCL4  -0.0812 
1465 CL      -2.4781    -9.5878    10.8581 Cl    293 CCL4  -0.0812 
1466 CL       2.7256    20.0410     8.5756 Cl    294 CCL4  -0.0812 
1467 C        3.8397    20.0670     9.9558 C.3   294 CCL4   0.3246 
1468 CL       4.8034    21.5535     9.9099 Cl    294 CCL4  -0.0812 
1469 CL       4.9162    18.6601     9.8649 Cl    294 CCL4  -0.0812 
1470 CL       2.9196    20.0167    11.4735 Cl    294 CCL4  -0.0812 
1471 CL      -0.8668     1.3198    13.8299 Cl    295 CCL4  -0.0812 
1472 C        0.7438     0.9087    13.2074 C.3   295 CCL4   0.3246 
1473 CL       1.9727     1.3658    14.4048 Cl    295 CCL4  -0.0812 
1474 CL       1.0352     1.7813    11.6891 Cl    295 CCL4  -0.0812 
1475 CL       0.8350    -0.8363    12.9072 Cl    295 CCL4  -0.0812 
1476 CL      -1.2738    -9.4349     3.7577 Cl    296 CCL4  -0.0812 
1477 C       -1.9379    -7.8386     3.3703 C.3   296 CCL4   0.3246 
1478 CL      -1.0294    -6.5913     4.2413 Cl    296 CCL4  -0.0812 
1479 CL      -3.6425    -7.7708     3.8616 Cl    296 CCL4  -0.0812 
1480 CL      -1.8003    -7.5571     1.6236 Cl    296 CCL4  -0.0812 
1481 CL       2.9870    -7.4706    11.7416 Cl    297 CCL4  -0.0812 
1482 C        2.2677    -8.5404    12.9636 C.3   297 CCL4   0.3246 
1483 CL       3.0613    -8.2791    14.5307 Cl    297 CCL4  -0.0812 
1484 CL       2.4893   -10.2300    12.4674 Cl    297 CCL4  -0.0812 
1485 CL       0.5345    -8.1858    13.1179 Cl    297 CCL4  -0.0812 
1486 CL      -0.6781    -5.2352     7.5244 Cl    298 CCL4  -0.0812 
1487 C       -1.2799    -6.5309     8.5795 C.3   298 CCL4   0.3246 
1488 CL      -2.7821    -6.0154     9.3692 Cl    298 CCL4  -0.0812 
1489 CL      -0.0636    -6.8899     9.8201 Cl    298 CCL4  -0.0812 
1490 CL      -1.5963    -7.9834     7.6088 Cl    298 CCL4  -0.0812 
1491 CL      -2.3861    -2.1384     8.3281 Cl    299 CCL4  -0.0812 
1492 C       -2.2143    -2.1511    10.0965 C.3   299 CCL4   0.3246 
1493 CL      -1.8881    -0.5032    10.6645 Cl    299 CCL4  -0.0812 
1494 CL      -0.8724    -3.2175    10.5605 Cl    299 CCL4  -0.0812 
1495 CL      -3.7126    -2.7434    10.8398 Cl    299 CCL4  -0.0812 
1496 CL     -10.7646    13.6787   -11.5685 Cl    300 CCL4  -0.0812 
1497 C      -12.0818    14.8695   -11.5358 C.3   300 CCL4   0.3246 
1498 CL     -13.6351    14.0391   -11.7527 Cl    300 CCL4  -0.0812 
1499 CL     -11.8534    16.0451   -12.8480 Cl    300 CCL4  -0.0812 
1500 CL     -12.0743    15.7121    -9.9741 Cl    300 CCL4  -0.0812 
1501 CL      -3.1020     8.1245   -18.9379 Cl    301 CCL4  -0.0812 
1502 C       -2.6689     8.4166   -17.2397 C.3   301 CCL4   0.3246 
1503 CL      -2.8772     6.9180   -16.3083 Cl    301 CCL4  -0.0812 
1504 CL      -3.7185     9.6855   -16.5713 Cl    301 CCL4  -0.0812 
1505 CL      -0.9748     8.9418   -17.1452 Cl    301 CCL4  -0.0812 
1506 CL      -4.7803     0.1745   -16.9484 Cl    302 CCL4  -0.0812 
1507 C       -5.3357     1.6083   -16.0626 C.3   302 CCL4   0.3246 
1508 CL      -6.6706     2.3700   -16.9501 Cl    302 CCL4  -0.0812 
1509 CL      -3.9957     2.7637   -15.8999 Cl    302 CCL4  -0.0812 
1510 CL      -5.9019     1.1199   -14.4537 Cl    302 CCL4  -0.0812 
1511 CL      -9.8345    10.2329   -12.7965 Cl    303 CCL4  -0.0812 
1512 C       -9.2463     9.5505   -14.3267 C.3   303 CCL4   0.3246 
1513 CL      -9.0790     7.7885   -14.1690 Cl    303 CCL4  -0.0812 
1514 CL      -7.6683    10.2606   -14.7259 Cl    303 CCL4  -0.0812 
1515 CL     -10.4039     9.9275   -15.6190 Cl    303 CCL4  -0.0812 
1516 CL      -3.1822     3.7145     0.6897 Cl    304 CCL4  -0.0812 
1517 C       -4.3863     4.4944    -0.3575 C.3   304 CCL4   0.3246 
1518 CL      -4.0315     4.1175    -2.0554 Cl    304 CCL4  -0.0812 
1519 CL      -4.3457     6.2500    -0.1104 Cl    304 CCL4  -0.0812 
1520 CL      -6.0013     3.8954     0.0488 Cl    304 CCL4  -0.0812 
1521 CL      -5.1403     7.8320   -13.6981 Cl    305 CCL4  -0.0812 
1522 C       -5.4893     6.1307   -13.3346 C.3   305 CCL4   0.3246 
1523 CL      -3.9722     5.2530   -13.0585 Cl    305 CCL4  -0.0812 
1524 CL      -6.3394     5.4046   -14.7133 Cl    305 CCL4  -0.0812 
1525 CL      -6.4993     6.0358   -11.8750 Cl    305 CCL4  -0.0812 
1526 CL      -9.2010     1.6635   -19.5132 Cl    306 CCL4  -0.0812 
1527 C      -10.8139     0.9442   -19.7048 C.3   306 CCL4   0.3246 
1528 CL     -10.7082    -0.5088   -20.7199 Cl    306 CCL4  -0.0812 
1529 CL     -11.9013     2.1222   -20.4720 Cl    306 CCL4  -0.0812 
1530 CL     -11.4483     0.4952   -18.1100 Cl    306 CCL4  -0.0812 
1531 CL      -5.5217     2.0942   -11.0111 Cl    307 CCL4  -0.0812 
1532 C       -6.0468     0.4477   -10.6042 C.3   307 CCL4   0.3246 
1533 CL      -4.9945    -0.7414   -11.3986 Cl    307 CCL4  -0.0812 
1534 CL      -7.7133     0.2082   -11.1603 Cl    307 CCL4  -0.0812 
1535 CL      -5.9611     0.2293    -8.8453 Cl    307 CCL4  -0.0812 
1536 CL      -9.8561     2.0329   -15.0846 Cl    308 CCL4  -0.0812 
1537 C      -10.0275     2.9067   -13.5514 C.3   308 CCL4   0.3246 
1538 CL      -8.4207     3.2844   -12.9120 Cl    308 CCL4  -0.0812 
1539 CL     -10.8978     1.8922   -12.3815 Cl    308 CCL4  -0.0812 
1540 CL     -10.9198     4.4174   -13.8295 Cl    308 CCL4  -0.0812 
1541 CL       9.2157    -0.5838    22.2499 Cl    309 CCL4  -0.0812 
1542 C       10.1299     0.0752    20.8801 C.3   309 CCL4   0.3246 
1543 CL       9.6373    -0.7601    19.3915 Cl    309 CCL4  -0.0812 
1544 CL      11.8682    -0.1719    21.1551 Cl    309 CCL4  -0.0812 
1545 CL       9.7926     1.8119    20.7249 Cl    309 CCL4  -0.0812 
1546 CL      -8.0642    10.1883    -0.3511 Cl    310 CCL4  -0.0812 
1547 C       -7.8415     9.4555    -1.9497 C.3   310 CCL4   0.3246 
1548 CL      -6.7346    10.4555    -2.9146 Cl    310 CCL4  -0.0812 
1549 CL      -9.4129     9.3587    -2.7628 Cl    310 CCL4  -0.0812 
1550 CL      -7.1687     7.8213    -1.7669 Cl    310 CCL4  -0.0812 
1551 CL     -13.7250    12.3408     0.6638 Cl    311 CCL4  -0.0812 
1552 C      -13.6567    11.1979    -0.6941 C.3   311 CCL4   0.3246 
1553 CL     -12.1017    10.3461    -0.6818 Cl    311 CCL4  -0.0812 
1554 CL     -13.8284    12.0772    -2.2246 Cl    311 CCL4  -0.0812 
1555 CL     -14.9709    10.0186    -0.5401 Cl    311 CCL4  -0.0812 
1556 CL      -3.5599     4.7113    18.5781 Cl    312 CCL4  -0.0812 
1557 C       -3.4477     4.1404    20.2573 C.3   312 CCL4   0.3246 
1558 CL      -4.8049     4.7976    21.1939 Cl    312 CCL4  -0.0812 
1559 CL      -1.9162     4.6919    20.9692 Cl    312 CCL4  -0.0812 
1560 CL      -3.5112     2.3649    20.2886 Cl    312 CCL4  -0.0812 
1561 CL      -6.3589     9.5976    20.1901 Cl    313 CCL4  -0.0812 
1562 C       -7.3260     8.2733    20.8721 C.3   313 CCL4   0.3246 
1563 CL      -8.9953     8.8272    21.1151 Cl    313 CCL4  -0.0812 
1564 CL      -6.6372     7.7803    22.4340 Cl    313 CCL4  -0.0812 
1565 CL      -7.3167     6.8961    19.7486 Cl    313 CCL4  -0.0812 
1566 CL      -9.0803     5.2017   -17.1728 Cl    314 CCL4  -0.0812 
1567 C      -10.7488     5.3870   -17.7478 C.3   314 CCL4   0.3246 
1568 CL     -10.7515     5.6168   -19.5079 Cl    314 CCL4  -0.0812 
1569 CL     -11.5002     6.7895   -16.9631 Cl    314 CCL4  -0.0812 
1570 CL     -11.6704     3.9304   -17.3457 Cl    314 CCL4  -0.0812 
1571 CL      10.5405     9.2642   -12.9643 Cl    315 CCL4  -0.0812 
1572 C       10.1166     8.2699   -14.3733 C.3   315 CCL4   0.3246 
1573 CL       8.5391     7.5102   -14.0936 Cl    315 CCL4  -0.0812 
1574 CL      11.3441     7.0091   -14.6140 Cl    315 CCL4  -0.0812 
1575 CL      10.0370     9.2958   -15.8211 Cl    315 CCL4  -0.0812 
1576 CL       9.8941     1.0684   -13.1386 Cl    316 CCL4  -0.0812 
1577 C        9.4717     2.1589   -14.4738 C.3   316 CCL4   0.3246 
1578 CL      10.7448     2.1022   -15.7072 Cl    316 CCL4  -0.0812 
1579 CL       9.3182     3.8179   -13.8597 Cl    316 CCL4  -0.0812 
1580 CL       7.9341     1.6425   -15.1939 Cl    316 CCL4  -0.0812 
1581 CL       9.1020     7.7359    -8.9201 Cl    317 CCL4  -0.0812 
1582 C        7.4241     7.2471    -8.6129 C.3   317 CCL4   0.3246 
1583 CL       6.7021     6.6392   -10.1146 Cl    317 CCL4  -0.0812 
1584 CL       6.4953     8.6483    -8.0482 Cl    317 CCL4  -0.0812 
1585 CL       7.3934     5.9728    -7.3743 Cl    317 CCL4  -0.0812 
1586 CL      10.0822     5.1671    22.5029 Cl    318 CCL4  -0.0812 
1587 C       10.6764     6.1933    21.1814 C.3   318 CCL4   0.3246 
1588 CL      12.2255     6.9243    21.6480 Cl    318 CCL4  -0.0812 
1589 CL       9.4923     7.4757    20.8536 Cl    318 CCL4  -0.0812 
1590 CL      10.9056     5.2108    19.7187 Cl    318 CCL4  -0.0812 
1591 CL      -8.7370     4.3296    -6.7556 Cl    319 CCL4  -0.0812 
1592 C       -9.3696     2.9168    -7.6189 C.3   319 CCL4   0.3246 
1593 CL     -11.1309     2.8336    -7.4227 Cl    319 CCL4  -0.0812 
1594 CL      -8.6443     1.4467    -6.9502 Cl    319 CCL4  -0.0812 
1595 CL      -8.9593     3.0527    -9.3391 Cl    319 CCL4  -0.0812 
1596 CL      -4.0052     9.7130    -5.3129 Cl    320 CCL4  -0.0812 
1597 C       -2.7443     9.0076    -4.2843 C.3   320 CCL4   0.3246 
1598 CL      -3.4839     8.4127    -2.7880 Cl    320 CCL4  -0.0812 
1599 CL      -1.5300    10.2438    -3.9017 Cl    320 CCL4  -0.0812 
1600 CL      -1.9619     7.6584    -5.1305 Cl    320 CCL4  -0.0812 
1601 CL       9.7797     3.0056    -7.5912 Cl    321 CCL4  -0.0812 
1602 C        9.7483     2.5296    -9.3011 C.3   321 CCL4   0.3246 
1603 CL      11.4046     2.2378    -9.8709 Cl    321 CCL4  -0.0812 
1604 CL       9.0147     3.8345   -10.2525 Cl    321 CCL4  -0.0812 
1605 CL       8.7905     1.0459    -9.4897 Cl    321 CCL4  -0.0812 
1606 CL     -14.0035     2.0268    -4.1824 Cl    322 CCL4  -0.0812 
1607 C      -13.6094     0.2935    -4.2036 C.3   322 CCL4   0.3246 
1608 CL     -15.0440    -0.6419    -4.6753 Cl    322 CCL4  -0.0812 
1609 CL     -13.0912    -0.2058    -2.5824 Cl    322 CCL4  -0.0812 
1610 CL     -12.2970    -0.0054    -5.3657 Cl    322 CCL4  -0.0812 
1611 CL      -3.2188     7.9752   -10.6964 Cl    323 CCL4  -0.0812 
1612 C       -2.9302     7.9267    -8.9504 C.3   323 CCL4   0.3246 
1613 CL      -2.2100     9.4609    -8.4274 Cl    323 CCL4  -0.0812 
1614 CL      -1.8283     6.5897    -8.5652 Cl    323 CCL4  -0.0812 
1615 CL      -4.4748     7.6829    -8.1194 Cl    323 CCL4  -0.0812 
1616 CL      -5.0086    11.3049   -12.3700 Cl    324 CCL4  -0.0812 
1617 C       -5.9986    11.1633   -10.9014 C.3   324 CCL4   0.3246 
1618 CL      -4.9682    11.3958    -9.4752 Cl    324 CCL4  -0.0812 
1619 CL      -6.7426     9.5527   -10.8412 Cl    324 CCL4  -0.0812 
1620 CL      -7.2719    12.4017   -10.9171 Cl    324 CCL4  -0.0812 
1621 CL       0.1407     2.0154   -11.4618 Cl    325 CCL4  -0.0812 
1622 C       -1.6056     1.9481   -11.1598 C.3   325 CCL4   0.3246 
1623 CL      -2.4601     1.6947   -12.6938 Cl    325 CCL4  -0.0812 
1624 CL      -2.1437     3.4725   -10.4311 Cl    325 CCL4  -0.0812 
1625 CL      -1.9591     0.6108   -10.0492 Cl    325 CCL4  -0.0812 
1626 CL      -2.8448     3.4307    -6.9843 Cl    326 CCL4  -0.0812 
1627 C       -4.5287     3.8168    -6.5846 C.3   326 CCL4   0.3246 
1628 CL      -5.4096     4.2168    -8.0743 Cl    326 CCL4  -0.0812 
1629 CL      -4.5650     5.2006    -5.4754 Cl    326 CCL4  -0.0812 
1630 CL      -5.2906     2.4182    -5.8013 Cl    326 CCL4  -0.0812 
1631 CL       0.5188    11.9886    -8.4829 Cl    327 CCL4  -0.0812 
1632 C        1.2961    11.4569    -6.9786 C.3   327 CCL4   0.3246 
1633 CL       0.7872     9.7976    -6.6095 Cl    327 CCL4  -0.0812 
1634 CL       0.8203    12.5411    -5.6544 Cl    327 CCL4  -0.0812 
1635 CL       3.0595    11.4981    -7.1706 Cl    327 CCL4  -0.0812 
1636 CL      -9.6650     8.7003    -6.1393 Cl    328 CCL4  -0.0812 
1637 C       -7.9947     8.4895    -6.6904 C.3   328 CCL4   0.3246 
1638 CL      -7.9862     7.5257    -8.1815 Cl    328 CCL4  -0.0812 
1639 CL      -7.0637     7.6519    -5.4338 Cl    328 CCL4  -0.0812 
1640 CL      -7.2724    10.0813    -6.9995 Cl    328 CCL4  -0.0812 
1641 CL       6.4480    11.3290    -5.7563 Cl    329 CCL4  -0.0812 
1642 C        7.8975    10.5973    -5.0413 C.3   329 CCL4   0.3246 
1643 CL       9.1694    10.4611    -6.2712 Cl    329 CCL4  -0.0812 
1644 CL       7.5052     8.9767    -4.4279 Cl    329 CCL4  -0.0812 
1645 CL       8.4683    11.6293    -3.7138 Cl    329 CCL4  -0.0812 
1646 CL     -10.6671     7.4755   -10.6127 Cl    330 CCL4  -0.0812 
1647 C      -11.8818     6.4744    -9.7939 C.3   330 CCL4   0.3246 
1648 CL     -13.4945     7.1790   -10.0222 Cl    330 CCL4  -0.0812 
1649 CL     -11.5128     6.3893    -8.0599 Cl    330 CCL4  -0.0812 
1650 CL     -11.8520     4.8451   -10.4863 Cl    330 CCL4  -0.0812 
1651 CL       3.6208     1.4292   -12.3098 Cl    331 CCL4  -0.0812 
1652 C        5.2380     0.8420   -11.8747 C.3   331 CCL4   0.3246 
1653 CL       5.2428     0.3022   -10.1841 Cl    331 CCL4  -0.0812 
1654 CL       6.4159     2.1507   -12.0601 Cl    331 CCL4  -0.0812 
1655 CL       5.6794    -0.5038   -12.9449 Cl    331 CCL4  -0.0812 
1656 CL      -7.5374     3.9447    -3.2835 Cl    332 CCL4  -0.0812 
1657 C       -9.2491     4.3015    -2.9751 C.3   332 CCL4   0.3246 
1658 CL      -9.5120     4.4775    -1.2305 Cl    332 CCL4  -0.0812 
1659 CL     -10.2561     2.9743    -3.5972 Cl    332 CCL4  -0.0812 
1660 CL      -9.6927     5.8185    -3.7812 Cl    332 CCL4  -0.0812 
1661 CL       8.9104    11.3134    -9.9782 Cl    333 CCL4  -0.0812 
1662 C        7.8515    12.6796    -9.5691 C.3   333 CCL4   0.3246 
1663 CL       8.4494    13.4802    -8.1014 Cl    333 CCL4  -0.0812 
1664 CL       6.2001    12.0919    -9.2920 Cl    333 CCL4  -0.0812 
1665 CL       7.8429    13.8420   -10.9082 Cl    333 CCL4  -0.0812 
1666 CL      -8.4325    13.5061    -4.1557 Cl    334 CCL4  -0.0812 
1667 C       -9.7586    13.4262    -5.3331 C.3   334 CCL4   0.3246 
1668 CL     -10.7262    14.9149    -5.2492 Cl    334 CCL4  -0.0812 
1669 CL     -10.7905    12.0272    -4.9639 Cl    334 CCL4  -0.0812 
1670 CL      -9.0785    13.2548    -6.9638 Cl    334 CCL4  -0.0812 
1671 CL      -3.9856    13.0822    -4.0087 Cl    335 CCL4  -0.0812 
1672 C       -3.9145    13.6963    -5.6733 C.3   335 CCL4   0.3246 
1673 CL      -2.6925    12.7938    -6.5941 Cl    335 CCL4  -0.0812 
1674 CL      -3.4800    15.4183    -5.6522 Cl    335 CCL4  -0.0812 
1675 CL      -5.5011    13.4937    -6.4431 Cl    335 CCL4  -0.0812 
1676 CL     -12.6544     9.8129    -7.6019 Cl    336 CCL4  -0.0812 
1677 C      -12.0840    10.9716    -8.8170 C.3   336 CCL4   0.3246 
1678 CL     -13.0004    10.7446   -10.3184 Cl    336 CCL4  -0.0812 
1679 CL     -10.3561    10.7068    -9.1308 Cl    336 CCL4  -0.0812 
1680 CL     -12.3323    12.6222    -8.2157 Cl    336 CCL4  -0.0812 
1681 CL      -2.8908    17.6016    -2.8229 Cl    337 CCL4  -0.0812 
1682 C       -2.2324    16.5805    -1.5284 C.3   337 CCL4   0.3246 
1683 CL      -0.9551    17.4688    -0.6704 Cl    337 CCL4  -0.0812 
1684 CL      -1.5531    15.0962    -2.2275 Cl    337 CCL4  -0.0812 
1685 CL      -3.5323    16.1574    -0.3945 Cl    337 CCL4  -0.0812 
1686 CL       3.0654    13.7535   -10.1542 Cl    338 CCL4  -0.0812 
1687 C        3.6505    15.2360    -9.3747 C.3   338 CCL4   0.3246 
1688 CL       4.9491    15.9345   -10.3618 Cl    338 CCL4  -0.0812 
1689 CL       4.2762    14.8602    -7.7545 Cl    338 CCL4  -0.0812 
1690 CL       2.3105    16.3935    -9.2345 Cl    338 CCL4  -0.0812 
1691 CL       0.7735     6.8856   -14.6759 Cl    339 CCL4  -0.0812 
1692 C        0.3333     5.4647   -13.7070 C.3   339 CCL4   0.3246 
1693 CL      -0.5139     5.9937   -12.2428 Cl    339 CCL4  -0.0812 
1694 CL       1.8017     4.5839   -13.2444 Cl    339 CCL4  -0.0812 
1695 CL      -0.7262     4.3987   -14.6544 Cl    339 CCL4  -0.0812 
1696 CL       6.7126     9.9899    -1.0432 Cl    340 CCL4  -0.0812 
1697 C        6.9851     8.5042    -0.1115 C.3   340 CCL4   0.3246 
1698 CL       5.5322     8.1327     0.8357 Cl    340 CCL4  -0.0812 
1699 CL       8.3660     8.7361     0.9797 Cl    340 CCL4  -0.0812 
1700 CL       7.3289     7.1580    -1.2163 Cl    340 CCL4  -0.0812 
1701 CL       6.6225     8.4210    22.9288 Cl    341 CCL4  -0.0812 
1702 C        6.1111     9.5473    21.6595 C.3   341 CCL4   0.3246 
1703 CL       7.4025    10.7329    21.3716 Cl    341 CCL4  -0.0812 
1704 CL       4.6347    10.3891    22.1766 Cl    341 CCL4  -0.0812 
1705 CL       5.7856     8.6420    20.1660 Cl    341 CCL4  -0.0812 
1706 CL       4.5208     3.4944   -15.1527 Cl    342 CCL4  -0.0812 
1707 C        5.3393     5.0584   -14.9807 C.3   342 CCL4   0.3246 
1708 CL       5.8351     5.2941   -13.2950 Cl    342 CCL4  -0.0812 
1709 CL       4.2344     6.3670   -15.4396 Cl    342 CCL4  -0.0812 
1710 CL       6.7634     5.0822   -16.0380 Cl    342 CCL4  -0.0812 
1711 CL       5.1014    12.2369   -12.8211 Cl    343 CCL4  -0.0812 
1712 C        5.7487    10.7065   -13.4487 C.3   343 CCL4   0.3246 
1713 CL       4.4372     9.7757   -14.2010 Cl    343 CCL4  -0.0812 
1714 CL       6.4549     9.7613   -12.1210 Cl    343 CCL4  -0.0812 
1715 CL       7.0031    11.0547   -14.6557 Cl    343 CCL4  -0.0812 
1716 CL       2.2152     7.3567   -18.4363 Cl    344 CCL4  -0.0812 
1717 C        2.4602     5.6240   -18.7434 C.3   344 CCL4   0.3246 
1718 CL       1.6402     5.1644   -20.2507 Cl    344 CCL4  -0.0812 
1719 CL       1.7855     4.6849   -17.3972 Cl    344 CCL4  -0.0812 
1720 CL       4.1994     5.2907   -18.8900 Cl    344 CCL4  -0.0812 
1721 CL      -0.1771     1.7949   -17.9375 Cl    345 CCL4  -0.0812 
1722 C        0.2108     0.7325   -16.5715 C.3   345 CCL4   0.3246 
1723 CL       1.3525     1.5377   -15.4751 Cl    345 CCL4  -0.0812 
1724 CL       0.9402    -0.7602   -17.1848 Cl    345 CCL4  -0.0812 
1725 CL      -1.2793     0.3469   -15.6943 Cl    345 CCL4  -0.0812 
1726 CL       5.5081    -0.3304   -19.4285 Cl    346 CCL4  -0.0812 
1727 C        4.9688     0.9425   -18.3150 C.3   346 CCL4   0.3246 
1728 CL       4.7575     0.2608   -16.6887 Cl    346 CCL4  -0.0812 
1729 CL       3.4221     1.6083   -18.8799 Cl    346 CCL4  -0.0812 
1730 CL       6.1885     2.2323   -18.2707 Cl    346 CCL4  -0.0812 
1731 CL       3.1117     7.8343    -8.6998 Cl    347 CCL4  -0.0812 
1732 C        2.5737     8.5043   -10.2526 C.3   347 CCL4   0.3246 
1733 CL       0.8026     8.6035   -10.2700 Cl    347 CCL4  -0.0812 
1734 CL       3.1267     7.4587   -11.5761 Cl    347 CCL4  -0.0812 
1735 CL       3.2532    10.1277   -10.4645 Cl    347 CCL4  -0.0812 
1736 CL      -1.3856    11.3825   -11.5527 Cl    348 CCL4  -0.0812 
1737 C       -0.9465    10.8524   -13.1901 C.3   348 CCL4   0.3246 
1738 CL      -1.6623     9.2616   -13.5115 Cl    348 CCL4  -0.0812 
1739 CL       0.8223    10.7416   -13.3256 Cl    348 CCL4  -0.0812 
1740 CL      -1.5659    12.0213   -14.3750 Cl    348 CCL4  -0.0812 
1741 CL       1.3113     4.7168    -9.1112 Cl    349 CCL4  -0.0812 
1742 C        2.8287     3.8992    -8.6814 C.3   349 CCL4   0.3246 
1743 CL       4.0466     4.2096    -9.9352 Cl    349 CCL4  -0.0812 
1744 CL       2.5405     2.1539    -8.5616 Cl    349 CCL4  -0.0812 
1745 CL       3.4164     4.5089    -7.1187 Cl    349 CCL4  -0.0812 
1746 CL       4.1960    -0.2135    -6.3157 Cl    350 CCL4  -0.0812 
1747 C        5.9472     0.0593    -6.2078 C.3   350 CCL4   0.3246 
1748 CL       6.3290     1.6948    -6.7926 Cl    350 CCL4  -0.0812 
1749 CL       6.7960    -1.1394    -7.2038 Cl    350 CCL4  -0.0812 
1750 CL       6.4685    -0.1110    -4.5183 Cl    350 CCL4  -0.0812 
1751 CL     -13.2048     5.7503    -4.3740 Cl    351 CCL4  -0.0812 
1752 C      -13.4295     7.1018    -3.2412 C.3   351 CCL4   0.3246 
1753 CL     -12.8612     8.6103    -3.9884 Cl    351 CCL4  -0.0812 
1754 CL     -15.1515     7.2545    -2.8454 Cl    351 CCL4  -0.0812 
1755 CL     -12.5132     6.7916    -1.7493 Cl    351 CCL4  -0.0812 
1756 CL       1.8541    13.7769    -2.1788 Cl    352 CCL4  -0.0812 
1757 C        3.2960    14.5312    -2.8902 C.3   352 CCL4   0.3246 
1758 CL       2.8316    16.0475    -3.6923 Cl    352 CCL4  -0.0812 
1759 CL       4.0171    13.4275    -4.0792 Cl    352 CCL4  -0.0812 
1760 CL       4.4840    14.8708    -1.6128 Cl    352 CCL4  -0.0812 
1761 CL       3.9101     7.9562    -2.2881 Cl    353 CCL4  -0.0812 
1762 C        2.9447     8.5628    -3.6442 C.3   353 CCL4   0.3246 
1763 CL       1.5758     7.4691    -3.9247 Cl    353 CCL4  -0.0812 
1764 CL       3.9529     8.6319    -5.1040 Cl    353 CCL4  -0.0812 
1765 CL       2.3434    10.1871    -3.2521 Cl    353 CCL4  -0.0812 
1766 CL      -1.3272     2.3750    -3.7801 Cl    354 CCL4  -0.0812 
1767 C        0.2700     3.0069    -4.2348 C.3   354 CCL4   0.3246 
1768 CL       1.1619     1.7622    -5.1336 Cl    354 CCL4  -0.0812 
1769 CL       1.1744     3.4452    -2.7694 Cl    354 CCL4  -0.0812 
1770 CL       0.0777     4.4454    -5.2592 Cl    354 CCL4  -0.0812 
1771 CL       5.5986     5.4070    -4.1687 Cl    355 CCL4  -0.0812 
1772 C        5.6702     3.8922    -3.2463 C.3   355 CCL4   0.3246 
1773 CL       5.3233     4.2175    -1.5336 Cl    355 CCL4  -0.0812 
1774 CL       7.2909     3.1831    -3.4074 Cl    355 CCL4  -0.0812 
1775 CL       4.4617     2.7572    -3.8788 Cl    355 CCL4  -0.0812 
1776 CL       0.0928    15.2758    27.9966 Cl    356 CCL4  -0.0812 
1777 C        1.0054    15.7318    26.5402 C.3   356 CCL4   0.3246 
1778 CL       2.5854    16.3937    27.0062 Cl    356 CCL4  -0.0812 
1779 CL       0.0963    16.9582    25.6287 Cl    356 CCL4  -0.0812 
1780 CL       1.2548    14.2949    25.5269 Cl    356 CCL4  -0.0812 
1781 CL     -13.5231    14.4377     4.0894 Cl    357 CCL4  -0.0812 
1782 C      -13.7186    16.0002     4.9129 C.3   357 CCL4   0.3246 
1783 CL     -15.3613    16.6129     4.6307 Cl    357 CCL4  -0.0812 
1784 CL     -12.5409    17.1639     4.2683 Cl    357 CCL4  -0.0812 
1785 CL     -13.4522    15.7889     6.6577 Cl    357 CCL4  -0.0812 
1786 CL      -0.8793     9.7633     3.0168 Cl    358 CCL4  -0.0812 
1787 C       -0.8285    10.4765     4.6398 C.3   358 CCL4   0.3246 
1788 CL      -2.0769     9.7182     5.6501 Cl    358 CCL4  -0.0812 
1789 CL      -1.1283    12.2210     4.5305 Cl    358 CCL4  -0.0812 
1790 CL       0.7723    10.2095     5.3580 Cl    358 CCL4  -0.0812 
1791 CL      -4.3784     1.1169     8.4411 Cl    359 CCL4  -0.0812 
1792 C       -4.9633     2.7151     7.9354 C.3   359 CCL4   0.3246 
1793 CL      -6.6512     2.5742     7.4055 Cl    359 CCL4  -0.0812 
1794 CL      -3.9774     3.3202     6.5892 Cl    359 CCL4  -0.0812 
1795 CL      -4.8478     3.8469     9.2991 Cl    359 CCL4  -0.0812 
1796 CL     -10.2891    13.5206     7.5941 Cl    360 CCL4  -0.0812 
1797 C       -9.6830    11.9663     8.2008 C.3   360 CCL4   0.3246 
1798 CL      -9.8722    11.8870     9.9624 Cl    360 CCL4  -0.0812 
1799 CL      -7.9624    11.8048     7.7984 Cl    360 CCL4  -0.0812 
1800 CL     -10.6075    10.6495     7.4528 Cl    360 CCL4  -0.0812 
1801 CL      -3.3874    10.4583    11.0628 Cl    361 CCL4  -0.0812 
1802 C       -4.8124     9.9031    10.1599 C.3   361 CCL4   0.3246 
1803 CL      -4.9673     8.1391    10.3180 Cl    361 CCL4  -0.0812 
1804 CL      -4.6326    10.3243     8.4434 Cl    361 CCL4  -0.0812 
1805 CL      -6.2596    10.6961    10.8186 Cl    361 CCL4  -0.0812 
1806 CL      -9.9862     3.2503     6.2126 Cl    362 CCL4  -0.0812 
1807 C      -11.7335     3.2432     5.9035 C.3   362 CCL4   0.3246 
1808 CL     -12.0857     2.1733     4.5326 Cl    362 CCL4  -0.0812 
1809 CL     -12.2743     4.8861     5.5112 Cl    362 CCL4  -0.0812 
1810 CL     -12.5835     2.6679     7.3532 Cl    362 CCL4  -0.0812 
1811 CL      -4.3669     1.5741    12.1475 Cl    363 CCL4  -0.0812 
1812 C       -4.7689     0.7539    13.6666 C.3   363 CCL4   0.3246 
1813 CL      -3.8840    -0.7777    13.7553 Cl    363 CCL4  -0.0812 
1814 CL      -6.5141     0.4350    13.7214 Cl    363 CCL4  -0.0812 
1815 CL      -4.3018     1.7777    15.0396 Cl    363 CCL4  -0.0812 
1816 CL      -7.5999     2.5386    11.0178 Cl    364 CCL4  -0.0812 
1817 C       -8.8525     3.7555    11.3075 C.3   364 CCL4   0.3246 
1818 CL      -8.0748     5.3161    11.6428 Cl    364 CCL4  -0.0812 
1819 CL      -9.8416     3.2665    12.6999 Cl    364 CCL4  -0.0812 
1820 CL      -9.8827     3.8909     9.8670 Cl    364 CCL4  -0.0812 
1821 CL       9.5030     0.1422     5.0577 Cl    365 CCL4  -0.0812 
1822 C        9.0491     0.6669     3.4239 C.3   365 CCL4   0.3246 
1823 CL       7.5188    -0.0960     2.9556 Cl    365 CCL4  -0.0812 
1824 CL      10.3215     0.2121     2.2750 Cl    365 CCL4  -0.0812 
1825 CL       8.8486     2.4254     3.4066 Cl    365 CCL4  -0.0812 
1826 CL      -1.0629     6.7053     1.1030 Cl    366 CCL4  -0.0812 
1827 C       -0.1626     6.9352    -0.4074 C.3   366 CCL4   0.3246 
1828 CL      -0.9720     6.0512    -1.7170 Cl    366 CCL4  -0.0812 
1829 CL       1.4904     6.3173    -0.2042 Cl    366 CCL4  -0.0812 
1830 CL      -0.1089     8.6639    -0.8075 Cl    366 CCL4  -0.0812 
1831 CL      -3.9447     7.9321     3.0836 Cl    367 CCL4  -0.0812 
1832 C       -4.0530     6.5881     4.2350 C.3   367 CCL4   0.3246 
1833 CL      -4.7509     7.1669     5.7619 Cl    367 CCL4  -0.0812 
1834 CL      -2.4258     5.9481     4.5307 Cl    367 CCL4  -0.0812 
1835 CL      -5.0852     5.3101     3.5597 Cl    367 CCL4  -0.0812 
1836 CL      -8.1300     6.2420     1.5081 Cl    368 CCL4  -0.0812 
1837 C       -9.0375     5.3009     2.7096 C.3   368 CCL4   0.3246 
1838 CL     -10.7560     5.2613     2.2564 Cl    368 CCL4  -0.0812 
1839 CL      -8.8561     6.0643     4.2991 Cl    368 CCL4  -0.0812 
1840 CL      -8.4066     3.6420     2.7836 Cl    368 CCL4  -0.0812 
1841 CL      -6.8587    12.0546     2.3790 Cl    369 CCL4  -0.0812 
1842 C       -7.0965    10.9338     3.7282 C.3   369 CCL4   0.3246 
1843 CL      -8.6617    11.2761     4.4848 Cl    369 CCL4  -0.0812 
1844 CL      -5.7875    11.1466     4.9108 Cl    369 CCL4  -0.0812 
1845 CL      -7.0881     9.2659     3.1274 Cl    369 CCL4  -0.0812 
1846 CL     -13.3305     8.6248     2.3939 Cl    370 CCL4  -0.0812 
1847 C      -11.8899     9.2434     3.2264 C.3   370 CCL4   0.3246 
1848 CL     -11.6373     8.3359     4.7276 Cl    370 CCL4  -0.0812 
1849 CL     -12.1111    10.9622     3.6119 Cl    370 CCL4  -0.0812 
1850 CL     -10.4761     9.0434     2.1742 Cl    370 CCL4  -0.0812 
1851 CL      -7.4551     5.9841     8.1027 Cl    371 CCL4  -0.0812 
1852 C       -8.5284     7.3922     8.0107 C.3   371 CCL4   0.3246 
1853 CL      -7.9772     8.4552     6.7021 Cl    371 CCL4  -0.0812 
1854 CL      -8.4879     8.2760     9.5470 Cl    371 CCL4  -0.0812 
1855 CL     -10.1903     6.8553     7.6954 Cl    371 CCL4  -0.0812 
1856 CL      11.8638     9.7474     7.8595 Cl    372 CCL4  -0.0812 
1857 C       10.6240     8.5134     7.5702 C.3   372 CCL4   0.3246 
1858 CL       9.4416     8.5427     8.8961 Cl    372 CCL4  -0.0812 
1859 CL      11.3860     6.9107     7.4825 Cl    372 CCL4  -0.0812 
1860 CL       9.8069     8.8623     6.0358 Cl    372 CCL4  -0.0812 
1861 CL      10.1595     2.4722     9.3598 Cl    373 CCL4  -0.0812 
1862 C        9.2527     3.2486     8.0450 C.3   373 CCL4   0.3246 
1863 CL      10.3121     3.4561     6.6362 Cl    373 CCL4  -0.0812 
1864 CL       8.6764     4.8380     8.5852 Cl    373 CCL4  -0.0812 
1865 CL       7.8653     2.2321     7.5989 Cl    373 CCL4  -0.0812 
1866 CL       6.9640     4.9182     5.1112 Cl    374 CCL4  -0.0812 
1867 C        7.6819     5.9602     3.8639 C.3   374 CCL4   0.3246 
1868 CL       9.4537     5.9421     4.0084 Cl    374 CCL4  -0.0812 
1869 CL       7.0854     7.6183     4.0749 Cl    374 CCL4  -0.0812 
1870 CL       7.2195     5.3636     2.2569 Cl    374 CCL4  -0.0812 
1871 CL      -8.9699     4.0829    17.6793 Cl    375 CCL4  -0.0812 
1872 C       -7.9252     2.8630    16.9226 C.3   375 CCL4   0.3246 
1873 CL      -8.8426     1.3610    16.6824 Cl    375 CCL4  -0.0812 
1874 CL      -6.5304     2.5436    17.9760 Cl    375 CCL4  -0.0812 
1875 CL      -7.3615     3.4674    15.3511 Cl    375 CCL4  -0.0812 
1876 CL      -8.7666     6.7467    14.9977 Cl    376 CCL4  -0.0812 
1877 C       -7.2867     7.6946    15.2612 C.3   376 CCL4   0.3246 
1878 CL      -6.6376     8.2266    13.6947 Cl    376 CCL4  -0.0812 
1879 CL      -6.0755     6.6979    16.0979 Cl    376 CCL4  -0.0812 
1880 CL      -7.6686     9.1147    16.2581 Cl    376 CCL4  -0.0812 
1881 CL      -4.4498    14.0606    10.0568 Cl    377 CCL4  -0.0812 
1882 C       -5.8488    14.8443    10.8219 C.3   377 CCL4   0.3246 
1883 CL      -5.5495    16.5882    10.9848 Cl    377 CCL4  -0.0812 
1884 CL      -6.1127    14.1365    12.4298 Cl    377 CCL4  -0.0812 
1885 CL      -7.2895    14.5898     9.8184 Cl    377 CCL4  -0.0812 
1886 CL      -2.5066     7.0252    12.8199 Cl    378 CCL4  -0.0812 
1887 C       -2.9435     5.3284    13.1096 C.3   378 CCL4   0.3246 
1888 CL      -4.6987     5.1271    12.9288 Cl    378 CCL4  -0.0812 
1889 CL      -2.4622     4.8689    14.7566 Cl    378 CCL4  -0.0812 
1890 CL      -2.1047     4.2961    11.9332 Cl    378 CCL4  -0.0812 
1891 CL     -10.1936     9.2354    12.5906 Cl    379 CCL4  -0.0812 
1892 C      -11.6377     8.3826    12.0026 C.3   379 CCL4   0.3246 
1893 CL     -12.0744     8.9822    10.3897 Cl    379 CCL4  -0.0812 
1894 CL     -12.9872     8.6555    13.1242 Cl    379 CCL4  -0.0812 
1895 CL     -11.3005     6.6454    11.9067 Cl    379 CCL4  -0.0812 
1896 CL       4.4550     1.6742     9.9044 Cl    380 CCL4  -0.0812 
1897 C        5.7783     1.4400    11.0602 C.3   380 CCL4   0.3246 
1898 CL       5.1068     0.9695    12.6353 Cl    380 CCL4  -0.0812 
1899 CL       6.6934     2.9532    11.2318 Cl    380 CCL4  -0.0812 
1900 CL       6.8533     0.1610    10.4640 Cl    380 CCL4  -0.0812 
1901 CL     -10.2245    12.8068     1.1462 Cl    381 CCL4  -0.0812 
1902 C       -9.8782    14.0772    -0.0426 C.3   381 CCL4   0.3246 
1903 CL     -10.2553    15.6673     0.6545 Cl    381 CCL4  -0.0812 
1904 CL     -10.8652    13.8224    -1.4944 Cl    381 CCL4  -0.0812 
1905 CL      -8.1641    14.0071    -0.4839 Cl    381 CCL4  -0.0812 
1906 CL      -9.7574    14.6807     4.1110 Cl    382 CCL4  -0.0812 
1907 C       -8.2798    15.6431     4.3122 C.3   382 CCL4   0.3246 
1908 CL      -8.7201    17.3443     4.5594 Cl    382 CCL4  -0.0812 
1909 CL      -7.2665    15.5112     2.8595 Cl    382 CCL4  -0.0812 
1910 CL      -7.3779    15.0371     5.7167 Cl    382 CCL4  -0.0812 
1911 CL       8.5116    14.0554    10.1370 Cl    383 CCL4  -0.0812 
1912 C        7.6615    15.5971    10.3778 C.3   383 CCL4   0.3246 
1913 CL       8.3245    16.4232    11.8042 Cl    383 CCL4  -0.0812 
1914 CL       5.9321    15.2752    10.6251 Cl    383 CCL4  -0.0812 
1915 CL       7.8761    16.6314     8.9493 Cl    383 CCL4  -0.0812 
1916 CL      -2.2657    11.6152    -0.7439 Cl    384 CCL4  -0.0812 
1917 C       -3.7721    11.6272     0.1899 C.3   384 CCL4   0.3246 
1918 CL      -4.4902    10.0047     0.1871 Cl    384 CCL4  -0.0812 
1919 CL      -4.9016    12.7801    -0.5446 Cl    384 CCL4  -0.0812 
1920 CL      -3.4270    12.1119     1.8601 Cl    384 CCL4  -0.0812 
1921 CL     -14.7338    13.9457    12.4694 Cl    385 CCL4  -0.0812 
1922 C      -13.6548    12.8555    11.5764 C.3   385 CCL4   0.3246 
1923 CL     -14.6023    11.5384    10.8531 Cl    385 CCL4  -0.0812 
1924 CL     -12.4576    12.1755    12.6957 Cl    385 CCL4  -0.0812 
1925 CL     -12.8251    13.7626    10.2961 Cl    385 CCL4  -0.0812 
1926 CL       3.4498    15.1226     5.0563 Cl    386 CCL4  -0.0812 
1927 C        3.8097    16.4969     6.1222 C.3   386 CCL4   0.3246 
1928 CL       2.7767    17.8707     5.6777 Cl    386 CCL4  -0.0812 
1929 CL       5.5162    16.9612     5.9454 Cl    386 CCL4  -0.0812 
1930 CL       3.4915    16.0344     7.8079 Cl    386 CCL4  -0.0812 
1931 CL       0.1040     7.2834     7.2486 Cl    387 CCL4  -0.0812 
1932 C       -0.7002     6.8583     8.7694 C.3   387 CCL4   0.3246 
1933 CL      -0.8173     8.2970     9.7992 Cl    387 CCL4  -0.0812 
1934 CL       0.2475     5.6125     9.6024 Cl    387 CCL4  -0.0812 
1935 CL      -2.3283     6.2411     8.4274 Cl    387 CCL4  -0.0812 
1936 CL       6.2363    11.1234     2.6460 Cl    388 CCL4  -0.0812 
1937 C        7.2912    12.5396     2.4735 C.3   388 CCL4   0.3246 
1938 CL       8.9545    12.0916     2.9099 Cl    388 CCL4  -0.0812 
1939 CL       6.7182    13.8358     3.5452 Cl    388 CCL4  -0.0812 
1940 CL       7.2516    13.1053     0.7901 Cl    388 CCL4  -0.0812 
1941 CL       5.1688     4.8707     8.3745 Cl    389 CCL4  -0.0812 
1942 C        5.1504     6.5999     8.7779 C.3   389 CCL4   0.3246 
1943 CL       5.8622     6.8453    10.3871 Cl    389 CCL4  -0.0812 
1944 CL       3.4744     7.1788     8.7772 Cl    389 CCL4  -0.0812 
1945 CL       6.0880     7.5067     7.5730 Cl    389 CCL4  -0.0812 
1946 CL       6.3856    13.5454     7.1679 Cl    390 CCL4  -0.0812 
1947 C        5.8881    11.8424     7.1061 C.3   390 CCL4   0.3246 
1948 CL       4.2247    11.7345     6.4942 Cl    390 CCL4  -0.0812 
1949 CL       5.9820    11.1417     8.7334 Cl    390 CCL4  -0.0812 
1950 CL       6.9683    10.9414     6.0288 Cl    390 CCL4  -0.0812 
1951 CL       1.1473     6.7447     3.9000 Cl    391 CCL4  -0.0812 
1952 C        2.8481     6.4730     4.3243 C.3   391 CCL4   0.3246 
1953 CL       3.7100     5.8501     2.9046 Cl    391 CCL4  -0.0812 
1954 CL       2.9497     5.2865     5.6395 Cl    391 CCL4  -0.0812 
1955 CL       3.5848     8.0022     4.8491 Cl    391 CCL4  -0.0812 
1956 CL      -0.3561     3.6990     6.2599 Cl    392 CCL4  -0.0812 
1957 C        0.0201     2.4021     7.4095 C.3   392 CCL4   0.3246 
1958 CL       1.6853     2.6004     7.9879 Cl    392 CCL4  -0.0812 
1959 CL      -0.1453     0.8319     6.6003 Cl    392 CCL4  -0.0812 
1960 CL      -1.1025     2.4784     8.7820 Cl    392 CCL4  -0.0812 
1961 CL       3.6978    11.7266     0.2099 Cl    393 CCL4  -0.0812 
1962 C        2.4556    11.3554     1.4232 C.3   393 CCL4   0.3246 
1963 CL       2.3926     9.5996     1.6817 Cl    393 CCL4  -0.0812 
1964 CL       0.8809    11.9332     0.8452 Cl    393 CCL4  -0.0812 
1965 CL       2.8475    12.1651     2.9544 Cl    393 CCL4  -0.0812 
1966 CL       3.9194    -0.2400     3.6197 Cl    394 CCL4  -0.0812 
1967 C        3.9246     1.4712     4.0968 C.3   394 CCL4   0.3246 
1968 CL       4.5881     1.6313     5.7377 Cl    394 CCL4  -0.0812 
1969 CL       2.2628     2.0972     4.0616 Cl    394 CCL4  -0.0812 
1970 CL       4.9263     2.3992     2.9599 Cl    394 CCL4  -0.0812 
1971 CL       3.7509    10.1907    11.2696 Cl    395 CCL4  -0.0812 
1972 C        2.4615    11.1103    10.4654 C.3   395 CCL4   0.3246 
1973 CL       1.0162    11.1213    11.4980 Cl    395 CCL4  -0.0812 
1974 CL       2.0684    10.3488     8.9117 Cl    395 CCL4  -0.0812 
1975 CL       3.0092    12.7777    10.1843 Cl    395 CCL4  -0.0812 
1976 CL      -0.4411    14.0423     9.8873 Cl    396 CCL4  -0.0812 
1977 C       -0.7004    13.4028     8.2533 C.3   396 CCL4   0.3246 
1978 CL      -1.1846    11.7013     8.3669 Cl    396 CCL4  -0.0812 
1979 CL       0.8027    13.5368     7.3160 Cl    396 CCL4  -0.0812 
1980 CL      -1.9838    14.3265     7.4481 Cl    396 CCL4  -0.0812 
1981 CL       2.0160     7.2497    12.2289 Cl    397 CCL4  -0.0812 
1982 C        2.5120     5.6753    12.8839 C.3   397 CCL4   0.3246 
1983 CL       3.1486     4.6565    11.5760 Cl    397 CCL4  -0.0812 
1984 CL       1.1076     4.8828    13.6276 Cl    397 CCL4  -0.0812 
1985 CL       3.7758     5.9146    14.1084 Cl    397 CCL4  -0.0812 
1986 CL      -1.2527    14.9130     2.0477 Cl    398 CCL4  -0.0812 
1987 C       -1.8846    15.9221     3.3658 C.3   398 CCL4   0.3246 
1988 CL      -0.6226    16.1222     4.6010 Cl    398 CCL4  -0.0812 
1989 CL      -3.3145    15.1477     4.0847 Cl    398 CCL4  -0.0812 
1990 CL      -2.3484    17.5108     2.7232 Cl    398 CCL4  -0.0812 
1991 CL      11.3184   -12.1718   -16.9738 Cl    399 CCL4  -0.0812 
1992 C       11.5018   -10.4421   -16.6226 C.3   399 CCL4   0.3246 
1993 CL      10.3157    -9.5206   -17.5696 Cl    399 CCL4  -0.0812 
1994 CL      13.1413    -9.9229   -17.0669 Cl    399 CCL4  -0.0812 
1995 CL      11.2319   -10.1572   -14.8894 Cl    399 CCL4  -0.0812 
1996 CL      14.7352   -11.3071   -14.0640 Cl    400 CCL4  -0.0812 
1997 C       15.2498   -12.9951   -14.2485 C.3   400 CCL4   0.3246 
1998 CL      14.9798   -13.8629   -12.7239 Cl    400 CCL4  -0.0812 
1999 CL      16.9737   -13.0499   -14.6718 Cl    400 CCL4  -0.0812 
2000 CL      14.3065   -13.7608   -15.5408 Cl    400 CCL4  -0.0812 
2001 CL      15.9027    -1.2326   -16.7326 Cl    401 CCL4  -0.0812 
2002 C       16.8491    -1.2341   -15.2291 C.3   401 CCL4   0.3246 
2003 CL      15.8462    -1.8460   -13.8976 Cl    401 CCL4  -0.0812 
2004 CL      17.3809     0.4195   -14.8653 Cl    401 CCL4  -0.0812 
2005 CL      18.2712    -2.2778   -15.4200 Cl    401 CCL4  -0.0812 
2006 CL      20.3732   -14.4101   -14.6949 Cl    402 CCL4  -0.0812 
2007 C       20.1208   -15.9722   -13.8889 C.3   402 CCL4   0.3246 
2008 CL      21.5188   -16.3392   -12.8596 Cl    402 CCL4  -0.0812 
2009 CL      19.9364   -17.2470   -15.1115 Cl    402 CCL4  -0.0812 
2010 CL      18.6543   -15.8971   -12.8909 Cl    402 CCL4  -0.0812 
2011 CL      14.1783    17.1484   -10.9901 Cl    403 CCL4  -0.0812 
2012 C       14.1787    18.2447    -9.5921 C.3   403 CCL4   0.3246 
2013 CL      15.6370    19.2590    -9.6344 Cl    403 CCL4  -0.0812 
2014 CL      14.1658    17.2964    -8.0902 Cl    403 CCL4  -0.0812 
2015 CL      12.7329    19.2744    -9.6545 Cl    403 CCL4  -0.0812 
2016 CL      18.7561    -0.3972    21.0443 Cl    404 CCL4  -0.0812 
2017 C       18.6956    -0.4751    19.2706 C.3   404 CCL4   0.3246 
2018 CL      19.6532     0.8555    18.5895 Cl    404 CCL4  -0.0812 
2019 CL      17.0102    -0.3255    18.7280 Cl    404 CCL4  -0.0812 
2020 CL      19.3618    -2.0287    18.7204 Cl    404 CCL4  -0.0812 
2021 CL      17.2936   -13.3847    -0.4010 Cl    405 CCL4  -0.0812 
2022 C       18.1425   -14.7073    -1.2145 C.3   405 CCL4   0.3246 
2023 CL      18.8419   -14.1079    -2.7312 Cl    405 CCL4  -0.0812 
2024 CL      17.0016   -16.0230    -1.5617 Cl    405 CCL4  -0.0812 
2025 CL      19.4324   -15.3079    -0.1572 Cl    405 CCL4  -0.0812 
2026 CL      11.1046   -13.7731     0.2643 Cl    406 CCL4  -0.0812 
2027 C       12.4088   -13.9728    -0.9243 C.3   406 CCL4   0.3246 
2028 CL      13.9029   -14.4313    -0.0843 Cl    406 CCL4  -0.0812 
2029 CL      12.6645   -12.4458    -1.7907 Cl    406 CCL4  -0.0812 
2030 CL      11.9684   -15.2417    -2.0874 Cl    406 CCL4  -0.0812 
2031 CL      16.9998   -19.2054   -12.7270 Cl    407 CCL4  -0.0812 
2032 C       15.5084   -18.2400   -12.7071 C.3   407 CCL4   0.3246 
2033 CL      15.4680   -17.1868   -14.1380 Cl    407 CCL4  -0.0812 
2034 CL      15.4640   -17.2504   -11.2326 Cl    407 CCL4  -0.0812 
2035 CL      14.1015   -19.3234   -12.7329 Cl    407 CCL4  -0.0812 
2036 CL      12.5189    -0.9801   -15.2062 Cl    408 CCL4  -0.0812 
2037 C       11.7961    -2.5973   -15.1879 C.3   408 CCL4   0.3246 
2038 CL      10.0787    -2.4636   -14.7600 Cl    408 CCL4  -0.0812 
2039 CL      12.6279    -3.6056   -13.9884 Cl    408 CCL4  -0.0812 
2040 CL      11.9623    -3.3329   -16.7954 Cl    408 CCL4  -0.0812 
2041 CL      19.5693    20.1328    -7.3855 Cl    409 CCL4  -0.0812 
2042 C       18.5181    19.1397    -6.3515 C.3   409 CCL4   0.3246 
2043 CL      19.2465    18.9917    -4.7402 Cl    409 CCL4  -0.0812 
2044 CL      18.3313    17.5266    -7.0723 Cl    409 CCL4  -0.0812 
2045 CL      16.9237    19.9063    -6.2011 Cl    409 CCL4  -0.0812 
2046 CL      19.9251   -13.1038   -11.0804 Cl    410 CCL4  -0.0812 
2047 C       18.3745   -12.6534   -10.3395 C.3   410 CCL4   0.3246 
2048 CL      18.6642   -11.7568    -8.8355 Cl    410 CCL4  -0.0812 
2049 CL      17.4466   -14.1228    -9.9818 Cl    410 CCL4  -0.0812 
2050 CL      17.4576   -11.6274   -11.4600 Cl    410 CCL4  -0.0812 
2051 CL      17.5665    -3.6916    -5.9272 Cl    411 CCL4  -0.0812 
2052 C       17.4284    -2.1384    -5.0752 C.3   411 CCL4   0.3246 
2053 CL      17.4946    -2.4183    -3.3247 Cl    411 CCL4  -0.0812 
2054 CL      15.8873    -1.3618    -5.4835 Cl    411 CCL4  -0.0812 
2055 CL      18.7622    -1.0739    -5.5601 Cl    411 CCL4  -0.0812 
2056 CL      16.2318   -16.2958    -5.1264 Cl    412 CCL4  -0.0812 
2057 C       17.7198   -16.0706    -6.0698 C.3   412 CCL4   0.3246 
2058 CL      17.5384   -16.8428    -7.6579 Cl    412 CCL4  -0.0812 
2059 CL      19.0859   -16.8122    -5.2095 Cl    412 CCL4  -0.0812 
2060 CL      18.0229   -14.3340    -6.2855 Cl    412 CCL4  -0.0812 
2061 CL      14.3441   -15.4535    -8.3143 Cl    413 CCL4  -0.0812 
2062 C       13.1776   -16.7132    -7.8682 C.3   413 CCL4   0.3246 
2063 CL      12.0854   -17.0182    -9.2360 Cl    413 CCL4  -0.0812 
2064 CL      12.2407   -16.1791    -6.4562 Cl    413 CCL4  -0.0812 
2065 CL      14.0484   -18.2051    -7.4633 Cl    413 CCL4  -0.0812 
2066 CL      19.7561    15.2293    -0.6340 Cl    414 CCL4  -0.0812 
2067 C       18.9939    16.8094    -0.9078 C.3   414 CCL4   0.3246 
2068 CL      18.1998    17.3544     0.5858 Cl    414 CCL4  -0.0812 
2069 CL      17.7875    16.6680    -2.2046 Cl    414 CCL4  -0.0812 
2070 CL      20.2358    17.9885    -1.3776 Cl    414 CCL4  -0.0812 
2071 CL      19.8931    -8.9641   -16.7872 Cl    415 CCL4  -0.0812 
2072 C       20.0073    -9.2717   -15.0425 C.3   415 CCL4   0.3246 
2073 CL      18.3733    -9.4727   -14.3724 Cl    415 CCL4  -0.0812 
2074 CL      20.8096    -7.8985   -14.2541 Cl    415 CCL4  -0.0812 
2075 CL      20.9558   -10.7474   -14.7612 Cl    415 CCL4  -0.0812 
2076 CL      19.1865    -4.7376    -9.2946 Cl    416 CCL4  -0.0812 
2077 C       19.3305    -4.9691   -11.0493 C.3   416 CCL4   0.3246 
2078 CL      18.5886    -6.5150   -11.5070 Cl    416 CCL4  -0.0812 
2079 CL      21.0463    -4.9856   -11.5064 Cl    416 CCL4  -0.0812 
2080 CL      18.5018    -3.6423   -11.8904 Cl    416 CCL4  -0.0812 
2081 CL      15.3900    -5.6176   -12.8244 Cl    417 CCL4  -0.0812 
2082 C       14.4953    -7.1495   -12.7916 C.3   417 CCL4   0.3246 
2083 CL      15.5093    -8.4127   -12.0634 Cl    417 CCL4  -0.0812 
2084 CL      14.0678    -7.6176   -14.4476 Cl    417 CCL4  -0.0812 
2085 CL      13.0124    -6.9490   -11.8377 Cl    417 CCL4  -0.0812 
2086 CL      21.8586    -4.9782   -19.7065 Cl    418 CCL4  -0.0812 
2087 C       22.0730    -4.3542   -18.0574 C.3   418 CCL4   0.3246 
2088 CL      21.7616    -5.6510   -16.8863 Cl    418 CCL4  -0.0812 
2089 CL      20.9419    -3.0171   -17.7769 Cl    418 CCL4  -0.0812 
2090 CL      23.7339    -3.7668   -17.8589 Cl    418 CCL4  -0.0812 
2091 CL      14.1139    -0.5835    -9.2113 Cl    419 CCL4  -0.0812 
2092 C       14.5875    -2.2894    -9.1281 C.3   419 CCL4   0.3246 
2093 CL      13.7855    -3.0449    -7.7388 Cl    419 CCL4  -0.0812 
2094 CL      16.3473    -2.4107    -8.9383 Cl    419 CCL4  -0.0812 
2095 CL      14.1027    -3.1148   -10.6220 Cl    419 CCL4  -0.0812 
2096 CL      16.5330    -7.4468   -17.1359 Cl    420 CCL4  -0.0812 
2097 C       17.0122    -5.7920   -16.7027 C.3   420 CCL4   0.3246 
2098 CL      15.5593    -4.8200   -16.3834 Cl    420 CCL4  -0.0812 
2099 CL      17.9261    -5.0692   -18.0441 Cl    420 CCL4  -0.0812 
2100 CL      18.0323    -5.8342   -15.2492 Cl    420 CCL4  -0.0812 
2101 CL      15.8160   -11.9360    -3.5485 Cl    421 CCL4  -0.0812 
2102 C       14.9508   -11.6416    -5.0723 C.3   421 CCL4   0.3246 
2103 CL      13.6718   -10.4334    -4.8237 Cl    421 CCL4  -0.0812 
2104 CL      14.2227   -13.1578    -5.6349 Cl    421 CCL4  -0.0812 
2105 CL      16.0953   -11.0468    -6.2900 Cl    421 CCL4  -0.0812 
2106 CL      15.6293    -6.0308    -9.2021 Cl    422 CCL4  -0.0812 
2107 C       15.6567    -7.4909    -8.1964 C.3   422 CCL4   0.3246 
2108 CL      14.3386    -8.5752    -8.6757 Cl    422 CCL4  -0.0812 
2109 CL      15.4432    -7.0353    -6.4962 Cl    422 CCL4  -0.0812 
2110 CL      17.2102    -8.3204    -8.4128 Cl    422 CCL4  -0.0812 
2111 CL      11.6832    -4.4461    -5.1464 Cl    423 CCL4  -0.0812 
2112 C       12.7721    -4.8210    -3.7946 C.3   423 CCL4   0.3246 
2113 CL      12.5951    -6.5320    -3.3599 Cl    423 CCL4  -0.0812 
2114 CL      12.3666    -3.8007    -2.4011 Cl    423 CCL4  -0.0812 
2115 CL      14.4510    -4.5028    -4.2676 Cl    423 CCL4  -0.0812 
2116 CL      18.3025    -8.4178    -4.9220 Cl    424 CCL4  -0.0812 
2117 C       17.7075    -7.9200    -3.3265 C.3   424 CCL4   0.3246 
2118 CL      18.6554    -8.7484    -2.0720 Cl    424 CCL4  -0.0812 
2119 CL      15.9949    -8.3561    -3.1622 Cl    424 CCL4  -0.0812 
2120 CL      17.8744    -6.1594    -3.1579 Cl    424 CCL4  -0.0812 
2121 CL      11.1993    -8.0245    -6.5915 Cl    425 CCL4  -0.0812 
2122 C       10.7599    -7.0993    -8.0436 C.3   425 CCL4   0.3246 
2123 CL      12.0304    -5.9180    -8.4040 Cl    425 CCL4  -0.0812 
2124 CL       9.2306    -6.2447    -7.7682 Cl    425 CCL4  -0.0812 
2125 CL      10.5796    -8.2012    -9.4199 Cl    425 CCL4  -0.0812 
2126 CL      11.9917   -11.3872    -8.3309 Cl    426 CCL4  -0.0812 
2127 C       12.8361   -11.8980    -9.8076 C.3   426 CCL4   0.3246 
2128 CL      12.2217   -13.4803   -10.3207 Cl    426 CCL4  -0.0812 
2129 CL      14.5731   -12.0211    -9.4726 Cl    426 CCL4  -0.0812 
2130 CL      12.5639   -10.7144   -11.1049 Cl    426 CCL4  -0.0812 
2131 CL      10.1415   -11.1735     7.6502 Cl    427 CCL4  -0.0812 
2132 C        9.5621    -9.5477     8.0682 C.3   427 CCL4   0.3246 
2133 CL       8.6832    -8.8640     6.6851 Cl    427 CCL4  -0.0812 
2134 CL      10.9422    -8.5044     8.4688 Cl    427 CCL4  -0.0812 
2135 CL       8.4783    -9.6488     9.4707 Cl    427 CCL4  -0.0812 
2136 CL      17.2559    18.5120     8.6099 Cl    428 CCL4  -0.0812 
2137 C       18.7768    19.3314     9.0215 C.3   428 CCL4   0.3246 
2138 CL      19.6133    19.8104     7.5274 Cl    428 CCL4  -0.0812 
2139 CL      19.8018    18.2197     9.9528 Cl    428 CCL4  -0.0812 
2140 CL      18.4336    20.7748    10.0000 Cl    428 CCL4  -0.0812 
2141 CL      13.7807   -10.6966     8.5523 Cl    429 CCL4  -0.0812 
2142 C       13.9945   -12.3988     8.0994 C.3   429 CCL4   0.3246 
2143 CL      12.7835   -13.3937     8.9305 Cl    429 CCL4  -0.0812 
2144 CL      15.6217   -12.9339     8.5676 Cl    429 CCL4  -0.0812 
2145 CL      13.7867   -12.5696     6.3462 Cl    429 CCL4  -0.0812 
2146 CL      15.5282    -3.3866     9.3465 Cl    430 CCL4  -0.0812 
2147 C       15.6521    -1.6198     9.2535 C.3   430 CCL4   0.3246 
2148 CL      14.3999    -0.8957    10.2842 Cl    430 CCL4  -0.0812 
2149 CL      15.4262    -1.1000     7.5717 Cl    430 CCL4  -0.0812 
2150 CL      17.2545    -1.1015     9.8139 Cl    430 CCL4  -0.0812 
2151 CL      20.4924   -13.8105     9.1984 Cl    431 CCL4  -0.0812 
2152 C       19.8255   -15.4234     9.5274 C.3   431 CCL4   0.3246 
2153 CL      20.9129   -16.6590     8.8622 Cl    431 CCL4  -0.0812 
2154 CL      18.2244   -15.5701     8.7695 Cl    431 CCL4  -0.0812 
2155 CL      19.6755   -15.6561    11.2826 Cl    431 CCL4  -0.0812 
2156 CL      13.9064    16.7187     9.2523 Cl    432 CCL4  -0.0812 
2157 C       12.8022    18.0335     8.7982 C.3   432 CCL4   0.3246 
2158 CL      13.6048    19.5862     9.0867 Cl    432 CCL4  -0.0812 
2159 CL      11.3233    17.9377     9.7797 Cl    432 CCL4  -0.0812 
2160 CL      12.3854    17.9018     7.0759 Cl    432 CCL4  -0.0812 
2161 CL      16.7118    -3.5458     5.1719 Cl    433 CCL4  -0.0812 
2162 C       17.2594    -2.4292     3.9030 C.3   433 CCL4   0.3246 
2163 CL      18.0346    -1.0191     4.6485 Cl    433 CCL4  -0.0812 
2164 CL      15.8701    -1.8931     2.9365 Cl    433 CCL4  -0.0812 
2165 CL      18.4239    -3.2550     2.8503 Cl    433 CCL4  -0.0812 
2166 CL      16.4682   -15.8462     2.3362 Cl    434 CCL4  -0.0812 
2167 C       17.0533   -17.4288     2.8912 C.3   434 CCL4   0.3246 
2168 CL      15.6660   -18.4879     3.2167 Cl    434 CCL4  -0.0812 
2169 CL      18.0024   -17.2217     4.3778 Cl    434 CCL4  -0.0812 
2170 CL      18.0742   -18.1642     1.6366 Cl    434 CCL4  -0.0812 
2171 CL      19.5013   -11.4745     5.1623 Cl    435 CCL4  -0.0812 
2172 C       18.9142   -13.1132     4.8082 C.3   435 CCL4   0.3246 
2173 CL      17.2163   -13.2475     5.2963 Cl    435 CCL4  -0.0812 
2174 CL      19.8724   -14.3008     5.7122 Cl    435 CCL4  -0.0812 
2175 CL      19.0580   -13.4372     3.0687 Cl    435 CCL4  -0.0812 
2176 CL      10.2793   -15.7458     3.2059 Cl    436 CCL4  -0.0812 
2177 C       11.2928   -14.7207     4.2437 C.3   436 CCL4   0.3246 
2178 CL      11.4814   -15.4892     5.8305 Cl    436 CCL4  -0.0812 
2179 CL      10.5240   -13.1365     4.4617 Cl    436 CCL4  -0.0812 
2180 CL      12.8858   -14.5127     3.4853 Cl    436 CCL4  -0.0812 
2181 CL      16.1181   -18.2974     7.3587 Cl    437 CCL4  -0.0812 
2182 C       14.6426   -17.3650     7.0417 C.3   437 CCL4   0.3246 
2183 CL      15.0512   -15.9463     6.0599 Cl    437 CCL4  -0.0812 
2184 CL      13.9375   -16.8331     8.5813 Cl    437 CCL4  -0.0812 
2185 CL      13.4722   -18.3772     6.1668 Cl    437 CCL4  -0.0812 
2186 CL      11.5316    -0.7428     8.1043 Cl    438 CCL4  -0.0812 
2187 C       10.6127    -1.7306     9.2527 C.3   438 CCL4   0.3246 
2188 CL       8.9745    -1.9874     8.6197 Cl    438 CCL4  -0.0812 
2189 CL      10.5263    -0.8934    10.8159 Cl    438 CCL4  -0.0812 
2190 CL      11.4243    -3.2952     9.4646 Cl    438 CCL4  -0.0812 
2191 CL      13.8247     0.6624     0.9602 Cl    439 CCL4  -0.0812 
2192 C       13.2469    -0.6174    -0.1276 C.3   439 CCL4   0.3246 
2193 CL      11.7831    -0.0664    -0.9728 Cl    439 CCL4  -0.0812 
2194 CL      12.8778    -2.0694     0.8246 Cl    439 CCL4  -0.0812 
2195 CL      14.5029    -0.9984    -1.3236 Cl    439 CCL4  -0.0812 
2196 CL      15.5352    19.8605    14.4602 Cl    440 CCL4  -0.0812 
2197 C       15.0900    19.5732    12.7651 C.3   440 CCL4   0.3246 
2198 CL      13.4444    18.9065    12.6928 Cl    440 CCL4  -0.0812 
2199 CL      16.2242    18.4124    12.0439 Cl    440 CCL4  -0.0812 
2200 CL      15.1602    21.1078    11.8707 Cl    440 CCL4  -0.0812 
2201 CL      20.7681   -12.1839    12.5200 Cl    441 CCL4  -0.0812 
2202 C       19.0515   -11.8821    12.8663 C.3   441 CCL4   0.3246 
2203 CL      18.8116   -10.1567    13.2136 Cl    441 CCL4  -0.0812 
2204 CL      18.5567   -12.8447    14.2742 Cl    441 CCL4  -0.0812 
2205 CL      18.0657   -12.3435    11.4625 Cl    441 CCL4  -0.0812 
2206 CL      12.8037   -15.8943    11.8947 Cl    442 CCL4  -0.0812 
2207 C       11.6381   -17.0848    12.5105 C.3   442 CCL4   0.3246 
2208 CL      10.0626   -16.3015    12.7584 Cl    442 CCL4  -0.0812 
2209 CL      12.2233   -17.7390    14.0546 Cl    442 CCL4  -0.0812 
2210 CL      11.4649   -18.4069    11.3373 Cl    442 CCL4  -0.0812 
2211 CL      20.4861    -8.4155     7.4229 Cl    443 CCL4  -0.0812 
2212 C       19.9115    -9.2320     8.8919 C.3   443 CCL4   0.3246 
2213 CL      18.5583   -10.3077     8.4838 Cl    443 CCL4  -0.0812 
2214 CL      19.3750    -8.0198    10.0736 Cl    443 CCL4  -0.0812 
2215 CL      21.2308   -10.1890     9.5909 Cl    443 CCL4  -0.0812 
2216 CL      19.7011    -3.7267    14.3801 Cl    444 CCL4  -0.0812 
2217 C       19.6412    -4.7421    12.9228 C.3   444 CCL4   0.3246 
2218 CL      18.9593    -6.3286    13.3390 Cl    444 CCL4  -0.0812 
2219 CL      21.2805    -4.9517    12.2785 Cl    444 CCL4  -0.0812 
2220 CL      18.6264    -3.9625    11.6919 Cl    444 CCL4  -0.0812 
2221 CL      15.9884    -6.4682    11.1767 Cl    445 CCL4  -0.0812 
2222 C       15.1331    -7.9060    11.7688 C.3   445 CCL4   0.3246 
2223 CL      15.9134    -9.3666    11.1287 Cl    445 CCL4  -0.0812 
2224 CL      13.4398    -7.8511    11.2318 Cl    445 CCL4  -0.0812 
2225 CL      15.1960    -7.9340    13.5432 Cl    445 CCL4  -0.0812 
2226 CL      20.2983    -4.9664     6.0249 Cl    446 CCL4  -0.0812 
2227 C       19.8173    -4.2945     7.5979 C.3   446 CCL4   0.3246 
2228 CL      21.1184    -4.5345     8.7766 Cl    446 CCL4  -0.0812 
2229 CL      18.3542    -5.1155     8.1676 Cl    446 CCL4  -0.0812 
2230 CL      19.4938    -2.5583     7.4352 Cl    446 CCL4  -0.0812 
2231 CL      21.2597    -7.5035     0.2962 Cl    447 CCL4  -0.0812 
2232 C       20.5381    -6.1167     1.1377 C.3   447 CCL4   0.3246 
2233 CL      19.3630    -6.7087     2.3305 Cl    447 CCL4  -0.0812 
2234 CL      19.7238    -5.0675    -0.0438 Cl    447 CCL4  -0.0812 
2235 CL      21.8064    -5.1917     1.9707 Cl    447 CCL4  -0.0812 
2236 CL      15.6212   -11.9546     2.3867 Cl    448 CCL4  -0.0812 
2237 C       16.0547   -10.4362     1.5737 C.3   448 CCL4   0.3246 
2238 CL      15.3349    -9.0783     2.4507 Cl    448 CCL4  -0.0812 
2239 CL      15.4390   -10.4486    -0.0916 Cl    448 CCL4  -0.0812 
2240 CL      17.8192   -10.2458     1.5586 Cl    448 CCL4  -0.0812 
2241 CL      15.6200    -5.4676     2.3540 Cl    449 CCL4  -0.0812 
2242 C       15.5493    -5.6067     0.5885 C.3   449 CCL4   0.3246 
2243 CL      16.0659    -4.0823    -0.1578 Cl    449 CCL4  -0.0812 
2244 CL      13.8903    -5.9767     0.0898 Cl    449 CCL4  -0.0812 
2245 CL      16.6221    -6.9127     0.0653 Cl    449 CCL4  -0.0812 
2246 CL      12.5128    -4.3781     3.7413 Cl    450 CCL4  -0.0812 
2247 C       11.9522    -4.3920     5.4255 C.3   450 CCL4   0.3246 
2248 CL      11.3072    -5.9964     5.8320 Cl    450 CCL4  -0.0812 
2249 CL      10.6748    -3.1809     5.6325 Cl    450 CCL4  -0.0812 
2250 CL      13.3118    -4.0053     6.4986 Cl    450 CCL4  -0.0812 
2251 CL      15.9894    -9.7929     5.7921 Cl    451 CCL4  -0.0812 
2252 C       16.0631    -8.0479     6.1102 C.3   451 CCL4   0.3246 
2253 CL      14.6615    -7.2392     5.3842 Cl    451 CCL4  -0.0812 
2254 CL      17.5539    -7.3876     5.4096 Cl    451 CCL4  -0.0812 
2255 CL      16.0476    -7.7698     7.8608 Cl    451 CCL4  -0.0812 
2256 CL      12.1132    -9.7002     4.9681 Cl    452 CCL4  -0.0812 
2257 C       11.5316    -9.5538     3.2978 C.3   452 CCL4   0.3246 
2258 CL       9.7595    -9.6502     3.2792 Cl    452 CCL4  -0.0812 
2259 CL      12.2061   -10.8714     2.3165 Cl    452 CCL4  -0.0812 
2260 CL      12.0453    -7.9922     2.6281 Cl    452 CCL4  -0.0812 
2261 CL      11.2703    -6.6948    14.3913 Cl    453 CCL4  -0.0812 
2262 C        9.8990    -6.7259    13.2627 C.3   453 CCL4   0.3246 
2263 CL      10.2366    -5.6476    11.8950 Cl    453 CCL4  -0.0812 
2264 CL       8.4249    -6.1924    14.0986 Cl    453 CCL4  -0.0812 
2265 CL       9.6673    -8.3757    12.6593 Cl    453 CCL4  -0.0812 
2266 CL      12.4799   -10.3364    13.9118 Cl    454 CCL4  -0.0812 
2267 C       12.3022   -11.6535    12.7347 C.3   454 CCL4   0.3246 
2268 CL      11.3504   -12.9640    13.4620 Cl    454 CCL4  -0.0812 
2269 CL      13.9091   -12.2613    12.2791 Cl    454 CCL4  -0.0812 
2270 CL      11.4667   -11.0495    11.2904 Cl    454 CCL4  -0.0812 
2271 CL      10.1293    12.7746   -13.6239 Cl    455 CCL4  -0.0812 
2272 C       10.5528    14.4981   -13.5522 C.3   455 CCL4   0.3246 
2273 CL       9.1059    15.4777   -13.8785 Cl    455 CCL4  -0.0812 
2274 CL      11.7949    14.8550   -14.7705 Cl    455 CCL4  -0.0812 
2275 CL      11.1853    14.8851   -11.9387 Cl    455 CCL4  -0.0812 
2276 CL      20.9306     0.1109   -15.8336 Cl    456 CCL4  -0.0812 
2277 C       20.9906     1.8835   -15.7929 C.3   456 CCL4   0.3246 
2278 CL      20.0723     2.5403   -17.1639 Cl    456 CCL4  -0.0812 
2279 CL      22.6780     2.4144   -15.8957 Cl    456 CCL4  -0.0812 
2280 CL      20.2897     2.4685   -14.2727 Cl    456 CCL4  -0.0812 
2281 CL      13.7415    11.6579   -14.3583 Cl    457 CCL4  -0.0812 
2282 C       14.4656    10.0506   -14.5715 C.3   457 CCL4   0.3246 
2283 CL      14.1117     9.0504   -13.1473 Cl    457 CCL4  -0.0812 
2284 CL      16.2238    10.2108   -14.7689 Cl    457 CCL4  -0.0812 
2285 CL      13.7828     9.2844   -16.0192 Cl    457 CCL4  -0.0812 
2286 CL      17.8633    -0.9074    -0.1822 Cl    458 CCL4  -0.0812 
2287 C       19.0141     0.2368     0.5273 C.3   458 CCL4   0.3246 
2288 CL      20.3836    -0.6633     1.2074 Cl    458 CCL4  -0.0812 
2289 CL      18.2045     1.1566     1.8118 Cl    458 CCL4  -0.0812 
2290 CL      19.5990     1.3498    -0.7281 Cl    458 CCL4  -0.0812 
2291 CL      21.3573     4.5847    -1.3921 Cl    459 CCL4  -0.0812 
2292 C       19.9993     5.7299    -1.3906 C.3   459 CCL4   0.3246 
2293 CL      19.6050     6.1679    -3.0616 Cl    459 CCL4  -0.0812 
2294 CL      20.4469     7.1960    -0.4970 Cl    459 CCL4  -0.0812 
2295 CL      18.5865     4.9787    -0.6202 Cl    459 CCL4  -0.0812 
2296 CL      19.7155     8.2392   -13.9819 Cl    460 CCL4  -0.0812 
2297 C       20.5462     6.6754   -13.8457 C.3   460 CCL4   0.3246 
2298 CL      22.2184     6.9396   -13.3181 Cl    460 CCL4  -0.0812 
2299 CL      20.5488     5.8728   -15.4287 Cl    460 CCL4  -0.0812 
2300 CL      19.7078     5.6531   -12.6589 Cl    460 CCL4  -0.0812 
2301 CL      15.2776     4.6743   -19.6044 Cl    461 CCL4  -0.0812 
2302 C       14.6315     3.0499   -19.2889 C.3   461 CCL4   0.3246 
2303 CL      15.8707     2.0681   -18.4780 Cl    461 CCL4  -0.0812 
2304 CL      14.1742     2.2812   -20.8239 Cl    461 CCL4  -0.0812 
2305 CL      13.1988     3.1799   -18.2499 Cl    461 CCL4  -0.0812 
2306 CL      18.9217     2.3252   -10.9509 Cl    462 CCL4  -0.0812 
2307 C       18.7148     0.5653   -10.8504 C.3   462 CCL4   0.3246 
2308 CL      19.7519    -0.2346   -12.0505 Cl    462 CCL4  -0.0812 
2309 CL      17.0220     0.1599   -11.1781 Cl    462 CCL4  -0.0812 
2310 CL      19.1505     0.0108    -9.2207 Cl    462 CCL4  -0.0812 
2311 CL      14.2975     2.0631   -15.0729 Cl    463 CCL4  -0.0812 
2312 C       14.1621     2.4532   -13.3488 C.3   463 CCL4   0.3246 
2313 CL      15.7122     3.0947   -12.7701 Cl    463 CCL4  -0.0812 
2314 CL      13.7419     0.9858   -12.4429 Cl    463 CCL4  -0.0812 
2315 CL      12.8955     3.6727   -13.1169 Cl    463 CCL4  -0.0812 
2316 CL      16.6138     9.8013    -0.4384 Cl    464 CCL4  -0.0812 
2317 C       16.6457     9.3950    -2.1651 C.3   464 CCL4   0.3246 
2318 CL      18.2758     9.6669    -2.8120 Cl    464 CCL4  -0.0812 
2319 CL      15.4909    10.4176    -3.0408 Cl    464 CCL4  -0.0812 
2320 CL      16.1984     7.6915    -2.3720 Cl    464 CCL4  -0.0812 
2321 CL      10.8034    11.3774    -0.3858 Cl    465 CCL4  -0.0812 
2322 C       11.4802    10.2213    -1.5533 C.3   465 CCL4   0.3246 
2323 CL      12.8426     9.3545    -0.8124 Cl    465 CCL4  -0.0812 
2324 CL      12.0346    11.0858    -3.0018 Cl    465 CCL4  -0.0812 
2325 CL      10.2290     9.0594    -2.0219 Cl    465 CCL4  -0.0812 
2326 CL      17.1651     4.3518   -15.7823 Cl    466 CCL4  -0.0812 
2327 C       16.2694     5.8711   -15.5728 C.3   466 CCL4   0.3246 
2328 CL      16.8845     7.0787   -16.7199 Cl    466 CCL4  -0.0812 
2329 CL      16.4818     6.4664   -13.9145 Cl    466 CCL4  -0.0812 
2330 CL      14.5439     5.5900   -15.8758 Cl    466 CCL4  -0.0812 
2331 CL      15.4669     4.3512    -6.8233 Cl    467 CCL4  -0.0812 
2332 C       15.2043     2.7651    -7.5773 C.3   467 CCL4   0.3246 
2333 CL      13.7171     2.0449    -6.9282 Cl    467 CCL4  -0.0812 
2334 CL      16.5807     1.7003    -7.2290 Cl    467 CCL4  -0.0812 
2335 CL      15.0547     2.9626    -9.3333 Cl    467 CCL4  -0.0812 
2336 CL      10.6091     1.2636    -4.4656 Cl    468 CCL4  -0.0812 
2337 C       10.9602    -0.3648    -5.0831 C.3   468 CCL4   0.3246 
2338 CL      10.9367    -0.3555    -6.8581 Cl    468 CCL4  -0.0812 
2339 CL       9.7348    -1.4965    -4.4810 Cl    468 CCL4  -0.0812 
2340 CL      12.5605    -0.8810    -4.5223 Cl    468 CCL4  -0.0812 
2341 CL      19.2428    11.4386   -12.2007 Cl    469 CCL4  -0.0812 
2342 C       17.7881    11.1919   -11.2111 C.3   469 CCL4   0.3246 
2343 CL      18.1768    11.4957    -9.5059 Cl    469 CCL4  -0.0812 
2344 CL      17.2194     9.5205   -11.3996 Cl    469 CCL4  -0.0812 
2345 CL      16.5150    12.3152   -11.7367 Cl    469 CCL4  -0.0812 
2346 CL      20.7805     5.8458    -6.6239 Cl    470 CCL4  -0.0812 
2347 C       19.8663     4.3864    -7.0446 C.3   470 CCL4   0.3246 
2348 CL      18.7353     4.7633    -8.3612 Cl    470 CCL4  -0.0812 
2349 CL      18.9695     3.8232    -5.6239 Cl    470 CCL4  -0.0812 
2350 CL      20.9829     3.1098    -7.5609 Cl    470 CCL4  -0.0812 
2351 CL      14.7429     8.1528    -6.1047 Cl    471 CCL4  -0.0812 
2352 C       16.4311     8.3350    -6.6226 C.3   471 CCL4   0.3246 
2353 CL      16.5706     7.9172    -8.3412 Cl    471 CCL4  -0.0812 
2354 CL      17.4636     7.2490    -5.6752 Cl    471 CCL4  -0.0812 
2355 CL      16.9505    10.0143    -6.3677 Cl    471 CCL4  -0.0812 
2356 CL      14.3316     6.2249   -10.7916 Cl    472 CCL4  -0.0812 
2357 C       12.7618     6.5533   -10.0277 C.3   472 CCL4   0.3246 
2358 CL      11.4599     6.2834   -11.2003 Cl    472 CCL4  -0.0812 
2359 CL      12.7141     8.2352    -9.4660 Cl    472 CCL4  -0.0812 
2360 CL      12.5334     5.4661    -8.6473 Cl    472 CCL4  -0.0812 
2361 CL      17.2149     1.4739    -3.6049 Cl    473 CCL4  -0.0812 
2362 C       15.9839     2.4993    -2.8462 C.3   473 CCL4   0.3246 
2363 CL      16.1008     2.3309    -1.0867 Cl    473 CCL4  -0.0812 
2364 CL      14.3713     1.9932    -3.3843 Cl    473 CCL4  -0.0812 
2365 CL      16.2480     4.1937    -3.3029 Cl    473 CCL4  -0.0812 
2366 CL       9.0407     3.9639    -0.4584 Cl    474 CCL4  -0.0812 
2367 C       10.7679     4.3308    -0.3008 C.3   474 CCL4   0.3246 
2368 CL      10.9886     6.0863    -0.1525 Cl    474 CCL4  -0.0812 
2369 CL      11.6385     3.7205    -1.7216 Cl    474 CCL4  -0.0812 
2370 CL      11.4021     3.5351     1.1450 Cl    474 CCL4  -0.0812 
2371 CL      17.2412    13.2534    -4.5606 Cl    475 CCL4  -0.0812 
2372 C       16.0812    13.9978    -5.6783 C.3   475 CCL4   0.3246 
2373 CL      15.7095    15.6461    -5.1302 Cl    475 CCL4  -0.0812 
2374 CL      14.5916    13.0309    -5.7126 Cl    475 CCL4  -0.0812 
2375 CL      16.7852    14.0607    -7.3073 Cl    475 CCL4  -0.0812 
2376 CL      11.9706    11.8842    -8.0599 Cl    476 CCL4  -0.0812 
2377 C       13.2206    12.1200    -9.2977 C.3   476 CCL4   0.3246 
2378 CL      12.5881    11.6285   -10.8821 Cl    476 CCL4  -0.0812 
2379 CL      14.6406    11.1356    -8.8934 Cl    476 CCL4  -0.0812 
2380 CL      13.6847    13.8325    -9.3525 Cl    476 CCL4  -0.0812 
2381 CL      11.9735     4.6860    -5.2580 Cl    477 CCL4  -0.0812 
2382 C       11.3821     6.2214    -4.5962 C.3   477 CCL4   0.3246 
2383 CL      11.1760     7.4023    -5.9055 Cl    477 CCL4  -0.0812 
2384 CL       9.8152     5.9561    -3.8010 Cl    477 CCL4  -0.0812 
2385 CL      12.5670     6.8367    -3.4245 Cl    477 CCL4  -0.0812 
2386 CL      10.0710    12.6774     6.3173 Cl    478 CCL4  -0.0812 
2387 C       10.6509    14.3538     6.3578 C.3   478 CCL4   0.3246 
2388 CL       9.3285    15.4513     5.9099 Cl    478 CCL4  -0.0812 
2389 CL      11.9949    14.5582     5.2129 Cl    478 CCL4  -0.0812 
2390 CL      11.2088    14.7273     7.9988 Cl    478 CCL4  -0.0812 
2391 CL      20.5066     0.5853     9.2689 Cl    479 CCL4  -0.0812 
2392 C       19.8395     2.0032     8.4384 C.3   479 CCL4   0.3246 
2393 CL      18.6119     1.4775     7.2668 Cl    479 CCL4  -0.0812 
2394 CL      21.1415     2.8618     7.5910 Cl    479 CCL4  -0.0812 
2395 CL      19.1023     3.0873     9.6341 Cl    479 CCL4  -0.0812 
2396 CL      16.9504    12.4933     8.1900 Cl    480 CCL4  -0.0812 
2397 C       15.5333    11.5238     7.7381 C.3   480 CCL4   0.3246 
2398 CL      15.0895    10.4717     9.0950 Cl    480 CCL4  -0.0812 
2399 CL      15.9180    10.5284     6.3181 Cl    480 CCL4  -0.0812 
2400 CL      14.1752    12.6014     7.3568 Cl    480 CCL4  -0.0812 
2401 CL      21.4584     9.2421     7.6482 Cl    481 CCL4  -0.0812 
2402 C       19.9547     8.6390     6.9195 C.3   481 CCL4   0.3246 
2403 CL      20.1248     6.9101     6.5571 Cl    481 CCL4  -0.0812 
2404 CL      19.6226     9.5294     5.4181 Cl    481 CCL4  -0.0812 
2405 CL      18.6132     8.8723     8.0583 Cl    481 CCL4  -0.0812 
2406 CL      15.4472     1.4657     4.6544 Cl    482 CCL4  -0.0812 
2407 C       13.7197     1.3140     5.0364 C.3   482 CCL4   0.3246 
2408 CL      13.1790    -0.3512     4.7298 Cl    482 CCL4  -0.0812 
2409 CL      12.7887     2.4333     4.0283 Cl    482 CCL4  -0.0812 
2410 CL      13.4562     1.7243     6.7388 Cl    482 CCL4  -0.0812 
2411 CL      17.6621     1.5203    12.5219 Cl    483 CCL4  -0.0812 
2412 C       18.2220     0.0980    13.4255 C.3   483 CCL4   0.3246 
2413 CL      19.7135    -0.5244    12.6851 Cl    483 CCL4  -0.0812 
2414 CL      16.9641    -1.1561    13.3923 Cl    483 CCL4  -0.0812 
2415 CL      18.5424     0.5547    15.1107 Cl    483 CCL4  -0.0812 
2416 CL      15.6553     2.2660     9.3765 Cl    484 CCL4  -0.0812 
2417 C       14.7147     3.4320    10.3259 C.3   484 CCL4   0.3246 
2418 CL      15.8145     4.6419    11.0129 Cl    484 CCL4  -0.0812 
2419 CL      13.8669     2.5886    11.6393 Cl    484 CCL4  -0.0812 
2420 CL      13.5294     4.2351     9.2759 Cl    484 CCL4  -0.0812 
2421 CL      14.5925     5.3525    -0.1923 Cl    485 CCL4  -0.0812 
2422 C       15.1200     5.5278     1.4928 C.3   485 CCL4   0.3246 
2423 CL      13.7187     5.9437     2.4956 Cl    485 CCL4  -0.0812 
2424 CL      16.3393     6.8139     1.6008 Cl    485 CCL4  -0.0812 
2425 CL      15.8210     4.0029     2.0697 Cl    485 CCL4  -0.0812 
2426 CL      17.7362    14.0684     2.2127 Cl    486 CCL4  -0.0812 
2427 C       17.2908    12.8790     3.4498 C.3   486 CCL4   0.3246 
2428 CL      15.5646    13.0467     3.8285 Cl    486 CCL4  -0.0812 
2429 CL      18.2553    13.1673     4.9120 Cl    486 CCL4  -0.0812 
2430 CL      17.6090    11.2406     2.8440 Cl    486 CCL4  -0.0812 
2431 CL      11.5491     8.8682     2.6401 Cl    487 CCL4  -0.0812 
2432 C       12.9232     9.5264     3.5524 C.3   487 CCL4   0.3246 
2433 CL      13.3242     8.4388     4.8940 Cl    487 CCL4  -0.0812 
2434 CL      12.4937    11.1212     4.1962 Cl    487 CCL4  -0.0812 
2435 CL      14.3309     9.6807     2.4852 Cl    487 CCL4  -0.0812 
2436 CL      17.1604     4.9413     7.2699 Cl    488 CCL4  -0.0812 
2437 C       15.9713     6.0046     6.4938 C.3   488 CCL4   0.3246 
2438 CL      16.7502     6.9151     5.1827 Cl    488 CCL4  -0.0812 
2439 CL      15.3224     7.1341     7.6969 Cl    488 CCL4  -0.0812 
2440 CL      14.6488     5.0258     5.8309 Cl    488 CCL4  -0.0812 
2441 CL      14.8128     4.9087    16.4750 Cl    489 CCL4  -0.0812 
2442 C       16.0417     3.7734    15.8761 C.3   489 CCL4   0.3246 
2443 CL      15.2450     2.3030    15.2750 Cl    489 CCL4  -0.0812 
2444 CL      17.1508     3.3493    17.1986 Cl    489 CCL4  -0.0812 
2445 CL      16.9560     4.5354    14.5566 Cl    489 CCL4  -0.0812 
2446 CL      17.6557    10.6855    11.7365 Cl    490 CCL4  -0.0812 
2447 C       16.8328     9.2298    12.3377 C.3   490 CCL4   0.3246 
2448 CL      17.6839     8.6092    13.7683 Cl    490 CCL4  -0.0812 
2449 CL      16.8312     7.9859    11.0720 Cl    490 CCL4  -0.0812 
2450 CL      15.1602     9.6365    12.7762 Cl    490 CCL4  -0.0812 
2451 CL      13.1985     7.6157    10.5100 Cl    491 CCL4  -0.0812 
2452 C       12.2000     7.0926    11.8781 C.3   491 CCL4   0.3246 
2453 CL      10.9795     5.9321    11.3111 Cl    491 CCL4  -0.0812 
2454 CL      11.3923     8.5086    12.5846 Cl    491 CCL4  -0.0812 
2455 CL      13.2333     6.3194    13.1007 Cl    491 CCL4  -0.0812 
2456 CL      14.2599    12.6330     0.3616 Cl    492 CCL4  -0.0812 
2457 C       15.0071    13.8321    -0.7133 C.3   492 CCL4   0.3246 
2458 CL      15.0315    15.4147     0.0894 Cl    492 CCL4  -0.0812 
2459 CL      14.0681    13.9500    -2.2139 Cl    492 CCL4  -0.0812 
2460 CL      16.6669    13.3343    -1.0924 Cl    492 CCL4  -0.0812 
2461 CL      15.0531    16.6049     3.5207 Cl    493 CCL4  -0.0812 
2462 C       16.0213    17.0292     4.9467 C.3   493 CCL4   0.3246 
2463 CL      15.5570    18.6472     5.5063 Cl    493 CCL4  -0.0812 
2464 CL      17.7459    17.0256     4.5201 Cl    493 CCL4  -0.0812 
2465 CL      15.7275    15.8449     6.2378 Cl    493 CCL4  -0.0812 
2466 CL      11.9219    14.7740    11.6994 Cl    494 CCL4  -0.0812 
2467 C       12.7772    13.2179    11.6297 C.3   494 CCL4   0.3246 
2468 CL      11.9253    12.1206    10.5233 Cl    494 CCL4  -0.0812 
2469 CL      12.8231    12.4969    13.2523 Cl    494 CCL4  -0.0812 
2470 CL      14.4368    13.4774    11.0503 Cl    494 CCL4  -0.0812 
@<TRIPOS>BOND
   1    1    2  1   
   2    2    3  1   
   3    2    4  1   
   4    2    5  1   
   5    6    7  1   
   6    7    8  1   
   7    7    9  1   
   8    7   10  1   
   9   11   12  1   
  10   12   13  1   
  11   12   14  1   
  12   12   15  1   
  13   16   17  1   
  14   17   18  1   
  15   17   19  1   
  16   17   20  1   
  17   21   22  1   
  18   22   23  1   
  19   22   24  1   
  20   22   25  1   
  21   26   27  1   
  22   27   28  1   
  23   27   29  1   
  24   27   30  1   
  25   31   32  1   
  26   32   33  1   
  27   32   34  1   
  28   32   35  1   
  29   36   37  1   
  30   37   38  1   
  31   37   39  1   
  32   37   40  1   
  33   41   42  1   
  34   42   43  1   
  35   42   44  1   
  36   42   45  1   
  37   46   47  1   
  38   47   48  1   
  39   47   49  1   
  40   47   50  1   
  41   51   52  1   
  42   52   53  1   
  43   52   54  1   
  44   52   55  1   
  45   56   57  1   
  46   57   58  1   
  47   57   59  1   
  48   57   60  1   
  49   61   62  1   
  50   62   63  1   
  51   62   64  1   
  52   62   65  1   
  53   66   67  1   
  54   67   68  1   
  55   67   69  1   
  56   67   70  1   
  57   71   72  1   
  58   72   73  1   
  59   72   74  1   
  60   72   75  1   
  61   76   77  1   
  62   77   78  1   
  63   77   79  1   
  64   77   80  1   
  65   81   82  1   
  66   82   83  1   
  67   82   84  1   
  68   82   85  1   
  69   86   87  1   
  70   87   88  1   
  71   87   89  1   
  72   87   90  1   
  73   91   92  1   
  74   92   93  1   
  75   92   94  1   
  76   92   95  1   
  77   96   97  1   
  78   97   98  1   
  79   97   99  1   
  80   97  100  1   
  81  101  102  1   
  82  102  103  1   
  83  102  104  1   
  84  102  105  1   
  85  106  107  1   
  86  107  108  1   
  87  107  109  1   
  88  107  110  1   
  89  111  112  1   
  90  112  113  1   
  91  112  114  1   
  92  112  115  1   
  93  116  117  1   
  94  117  118  1   
  95  117  119  1   
  96  117  120  1   
  97  121  122  1   
  98  122  123  1   
  99  122  124  1   
 100  122  125  1   
 101  126  127  1   
 102  127  128  1   
 103  127  129  1   
 104  127  130  1   
 105  131  132  1   
 106  132  133  1   
 107  132  134  1   
 108  132  135  1   
 109  136  137  1   
 110  137  138  1   
 111  137  139  1   
 112  137  140  1   
 113  141  142  1   
 114  142  143  1   
 115  142  144  1   
 116  142  145  1   
 117  146  147  1   
 118  147  148  1   
 119  147  149  1   
 120  147  150  1   
 121  151  152  1   
 122  152  153  1   
 123  152  154  1   
 124  152  155  1   
 125  156  157  1   
 126  157  158  1   
 127  157  159  1   
 128  157  160  1   
 129  161  162  1   
 130  162  163  1   
 131  162  164  1   
 132  162  165  1   
 133  166  167  1   
 134  167  168  1   
 135  167  169  1   
 136  167  170  1   
 137  171  172  1   
 138  172  173  1   
 139  172  174  1   
 140  172  175  1   
 141  176  177  1   
 142  177  178  1   
 143  177  179  1   
 144  177  180  1   
 145  181  182  1   
 146  182  183  1   
 147  182  184  1   
 148  182  185  1   
 149  186  187  1   
 150  187  188  1   
 151  187  189  1   
 152  187  190  1   
 153  191  192  1   
 154  192  193  1   
 155  192  194  1   
 156  192  195  1   
 157  196  197  1   
 158  197  198  1   
 159  197  199  1   
 160  197  200  1   
 161  201  202  1   
 162  202  203  1   
 163  202  204  1   
 164  202  205  1   
 165  206  207  1   
 166  207  208  1   
 167  207  209  1   
 168  207  210  1   
 169  211  212  1   
 170  212  213  1   
 171  212  214  1   
 172  212  215  1   
 173  216  217  1   
 174  217  218  1   
 175  217  219  1   
 176  217  220  1   
 177  221  222  1   
 178  222  223  1   
 179  222  224  1   
 180  222  225  1   
 181  226  227  1   
 182  227  228  1   
 183  227  229  1   
 184  227  230  1   
 185  231  232  1   
 186  232  233  1   
 187  232  234  1   
 188  232  235  1   
 189  236  237  1   
 190  237  238  1   
 191  237  239  1   
 192  237  240  1   
 193  241  242  1   
 194  242  243  1   
 195  242  244  1   
 196  242  245  1   
 197  246  247  1   
 198  247  248  1   
 199  247  249  1   
 200  247  250  1   
 201  251  252  1   
 202  252  253  1   
 203  252  254  1   
 204  252  255  1   
 205  256  257  1   
 206  257  258  1   
 207  257  259  1   
 208  257  260  1   
 209  261  262  1   
 210  262  263  1   
 211  262  264  1   
 212  262  265  1   
 213  266  267  1   
 214  267  268  1   
 215  267  269  1   
 216  267  270  1   
 217  271  272  1   
 218  272  273  1   
 219  272  274  1   
 220  272  275  1   
 221  276  277  1   
 222  277  278  1   
 223  277  279  1   
 224  277  280  1   
 225  281  282  1   
 226  282  283  1   
 227  282  284  1   
 228  282  285  1   
 229  286  287  1   
 230  287  288  1   
 231  287  289  1   
 232  287  290  1   
 233  291  292  1   
 234  292  293  1   
 235  292  294  1   
 236  292  295  1   
 237  296  297  1   
 238  297  298  1   
 239  297  299  1   
 240  297  300  1   
 241  301  302  1   
 242  302  303  1   
 243  302  304  1   
 244  302  305  1   
 245  306  307  1   
 246  307  308  1   
 247  307  309  1   
 248  307  310  1   
 249  311  312  1   
 250  312  313  1   
 251  312  314  1   
 252  312  315  1   
 253  316  317  1   
 254  317  318  1   
 255  317  319  1   
 256  317  320  1   
 257  321  322  1   
 258  322  323  1   
 259  322  324  1   
 260  322  325  1   
 261  326  327  1   
 262  327  328  1   
 263  327  329  1   
 264  327  330  1   
 265  331  332  1   
 266  332  333  1   
 267  332  334  1   
 268  332  335  1   
 269  336  337  1   
 270  337  338  1   
 271  337  339  1   
 272  337  340  1   
 273  341  342  1   
 274  342  343  1   
 275  342  344  1   
 276  342  345  1   
 277  346  347  1   
 278  347  348  1   
 279  347  349  1   
 280  347  350  1   
 281  351  352  1   
 282  352  353  1   
 283  352  354  1   
 284  352  355  1   
 285  356  357  1   
 286  357  358  1   
 287  357  359  1   
 288  357  360  1   
 289  361  362  1   
 290  362  363  1   
 291  362  364  1   
 292  362  365  1   
 293  366  367  1   
 294  367  368  1   
 295  367  369  1   
 296  367  370  1   
 297  371  372  1   
 298  372  373  1   
 299  372  374  1   
 300  372  375  1   
 301  376  377  1   
 302  377  378  1   
 303  377  379  1   
 304  377  380  1   
 305  381  382  1   
 306  382  383  1   
 307  382  384  1   
 308  382  385  1   
 309  386  387  1   
 310  387  388  1   
 311  387  389  1   
 312  387  390  1   
 313  391  392  1   
 314  392  393  1   
 315  392  394  1   
 316  392  395  1   
 317  396  397  1   
 318  397  398  1   
 319  397  399  1   
 320  397  400  1   
 321  401  402  1   
 322  402  403  1   
 323  402  404  1   
 324  402  405  1   
 325  406  407  1   
 326  407  408  1   
 327  407  409  1   
 328  407  410  1   
 329  411  412  1   
 330  412  413  1   
 331  412  414  1   
 332  412  415  1   
 333  416  417  1   
 334  417  418  1   
 335  417  419  1   
 336  417  420  1   
 337  421  422  1   
 338  422  423  1   
 339  422  424  1   
 340  422  425  1   
 341  426  427  1   
 342  427  428  1   
 343  427  429  1   
 344  427  430  1   
 345  431  432  1   
 346  432  433  1   
 347  432  434  1   
 348  432  435  1   
 349  436  437  1   
 350  437  438  1   
 351  437  439  1   
 352  437  440  1   
 353  441  442  1   
 354  442  443  1   
 355  442  444  1   
 356  442  445  1   
 357  446  447  1   
 358  447  448  1   
 359  447  449  1   
 360  447  450  1   
 361  451  452  1   
 362  452  453  1   
 363  452  454  1   
 364  452  455  1   
 365  456  457  1   
 366  457  458  1   
 367  457  459  1   
 368  457  460  1   
 369  461  462  1   
 370  462  463  1   
 371  462  464  1   
 372  462  465  1   
 373  466  467  1   
 374  467  468  1   
 375  467  469  1   
 376  467  470  1   
 377  471  472  1   
 378  472  473  1   
 379  472  474  1   
 380  472  475  1   
 381  476  477  1   
 382  477  478  1   
 383  477  479  1   
 384  477  480  1   
 385  481  482  1   
 386  482  483  1   
 387  482  484  1   
 388  482  485  1   
 389  486  487  1   
 390  487  488  1   
 391  487  489  1   
 392  487  490  1   
 393  491  492  1   
 394  492  493  1   
 395  492  494  1   
 396  492  495  1   
 397  496  497  1   
 398  497  498  1   
 399  497  499  1   
 400  497  500  1   
 401  501  502  1   
 402  502  503  1   
 403  502  504  1   
 404  502  505  1   
 405  506  507  1   
 406  507  508  1   
 407  507  509  1   
 408  507  510  1   
 409  511  512  1   
 410  512  513  1   
 411  512  514  1   
 412  512  515  1   
 413  516  517  1   
 414  517  518  1   
 415  517  519  1   
 416  517  520  1   
 417  521  522  1   
 418  522  523  1   
 419  522  524  1   
 420  522  525  1   
 421  526  527  1   
 422  527  528  1   
 423  527  529  1   
 424  527  530  1   
 425  531  532  1   
 426  532  533  1   
 427  532  534  1   
 428  532  535  1   
 429  536  537  1   
 430  537  538  1   
 431  537  539  1   
 432  537  540  1   
 433  541  542  1   
 434  542  543  1   
 435  542  544  1   
 436  542  545  1   
 437  546  547  1   
 438  547  548  1   
 439  547  549  1   
 440  547  550  1   
 441  551  552  1   
 442  552  553  1   
 443  552  554  1   
 444  552  555  1   
 445  556  557  1   
 446  557  558  1   
 447  557  559  1   
 448  557  560  1   
 449  561  562  1   
 450  562  563  1   
 451  562  564  1   
 452  562  565  1   
 453  566  567  1   
 454  567  568  1   
 455  567  569  1   
 456  567  570  1   
 457  571  572  1   
 458  572  573  1   
 459  572  574  1   
 460  572  575  1   
 461  576  577  1   
 462  577  578  1   
 463  577  579  1   
 464  577  580  1   
 465  581  582  1   
 466  582  583  1   
 467  582  584  1   
 468  582  585  1   
 469  586  587  1   
 470  587  588  1   
 471  587  589  1   
 472  587  590  1   
 473  591  592  1   
 474  592  593  1   
 475  592  594  1   
 476  592  595  1   
 477  596  597  1   
 478  597  598  1   
 479  597  599  1   
 480  597  600  1   
 481  601  602  1   
 482  602  603  1   
 483  602  604  1   
 484  602  605  1   
 485  606  607  1   
 486  607  608  1   
 487  607  609  1   
 488  607  610  1   
 489  611  612  1   
 490  612  613  1   
 491  612  614  1   
 492  612  615  1   
 493  616  617  1   
 494  617  618  1   
 495  617  619  1   
 496  617  620  1   
 497  621  622  1   
 498  622  623  1   
 499  622  624  1   
 500  622  625  1   
 501  626  627  1   
 502  627  628  1   
 503  627  629  1   
 504  627  630  1   
 505  631  632  1   
 506  632  633  1   
 507  632  634  1   
 508  632  635  1   
 509  636  637  1   
 510  637  638  1   
 511  637  639  1   
 512  637  640  1   
 513  641  642  1   
 514  642  643  1   
 515  642  644  1   
 516  642  645  1   
 517  646  647  1   
 518  647  648  1   
 519  647  649  1   
 520  647  650  1   
 521  651  652  1   
 522  652  653  1   
 523  652  654  1   
 524  652  655  1   
 525  656  657  1   
 526  657  658  1   
 527  657  659  1   
 528  657  660  1   
 529  661  662  1   
 530  662  663  1   
 531  662  664  1   
 532  662  665  1   
 533  666  667  1   
 534  667  668  1   
 535  667  669  1   
 536  667  670  1   
 537  671  672  1   
 538  672  673  1   
 539  672  674  1   
 540  672  675  1   
 541  676  677  1   
 542  677  678  1   
 543  677  679  1   
 544  677  680  1   
 545  681  682  1   
 546  682  683  1   
 547  682  684  1   
 548  682  685  1   
 549  686  687  1   
 550  687  688  1   
 551  687  689  1   
 552  687  690  1   
 553  691  692  1   
 554  692  693  1   
 555  692  694  1   
 556  692  695  1   
 557  696  697  1   
 558  697  698  1   
 559  697  699  1   
 560  697  700  1   
 561  701  702  1   
 562  702  703  1   
 563  702  704  1   
 564  702  705  1   
 565  706  707  1   
 566  707  708  1   
 567  707  709  1   
 568  707  710  1   
 569  711  712  1   
 570  712  713  1   
 571  712  714  1   
 572  712  715  1   
 573  716  717  1   
 574  717  718  1   
 575  717  719  1   
 576  717  720  1   
 577  721  722  1   
 578  722  723  1   
 579  722  724  1   
 580  722  725  1   
 581  726  727  1   
 582  727  728  1   
 583  727  729  1   
 584  727  730  1   
 585  731  732  1   
 586  732  733  1   
 587  732  734  1   
 588  732  735  1   
 589  736  737  1   
 590  737  738  1   
 591  737  739  1   
 592  737  740  1   
 593  741  742  1   
 594  742  743  1   
 595  742  744  1   
 596  742  745  1   
 597  746  747  1   
 598  747  748  1   
 599  747  749  1   
 600  747  750  1   
 601  751  752  1   
 602  752  753  1   
 603  752  754  1   
 604  752  755  1   
 605  756  757  1   
 606  757  758  1   
 607  757  759  1   
 608  757  760  1   
 609  761  762  1   
 610  762  763  1   
 611  762  764  1   
 612  762  765  1   
 613  766  767  1   
 614  767  768  1   
 615  767  769  1   
 616  767  770  1   
 617  771  772  1   
 618  772  773  1   
 619  772  774  1   
 620  772  775  1   
 621  776  777  1   
 622  777  778  1   
 623  777  779  1   
 624  777  780  1   
 625  781  782  1   
 626  782  783  1   
 627  782  784  1   
 628  782  785  1   
 629  786  787  1   
 630  787  788  1   
 631  787  789  1   
 632  787  790  1   
 633  791  792  1   
 634  792  793  1   
 635  792  794  1   
 636  792  795  1   
 637  796  797  1   
 638  797  798  1   
 639  797  799  1   
 640  797  800  1   
 641  801  802  1   
 642  802  803  1   
 643  802  804  1   
 644  802  805  1   
 645  806  807  1   
 646  807  808  1   
 647  807  809  1   
 648  807  810  1   
 649  811  812  1   
 650  812  813  1   
 651  812  814  1   
 652  812  815  1   
 653  816  817  1   
 654  817  818  1   
 655  817  819  1   
 656  817  820  1   
 657  821  822  1   
 658  822  823  1   
 659  822  824  1   
 660  822  825  1   
 661  826  827  1   
 662  827  828  1   
 663  827  829  1   
 664  827  830  1   
 665  831  832  1   
 666  832  833  1   
 667  832  834  1   
 668  832  835  1   
 669  836  837  1   
 670  837  838  1   
 671  837  839  1   
 672  837  840  1   
 673  841  842  1   
 674  842  843  1   
 675  842  844  1   
 676  842  845  1   
 677  846  847  1   
 678  847  848  1   
 679  847  849  1   
 680  847  850  1   
 681  851  852  1   
 682  852  853  1   
 683  852  854  1   
 684  852  855  1   
 685  856  857  1   
 686  857  858  1   
 687  857  859  1   
 688  857  860  1   
 689  861  862  1   
 690  862  863  1   
 691  862  864  1   
 692  862  865  1   
 693  866  867  1   
 694  867  868  1   
 695  867  869  1   
 696  867  870  1   
 697  871  872  1   
 698  872  873  1   
 699  872  874  1   
 700  872  875  1   
 701  876  877  1   
 702  877  878  1   
 703  877  879  1   
 704  877  880  1   
 705  881  882  1   
 706  882  883  1   
 707  882  884  1   
 708  882  885  1   
 709  886  887  1   
 710  887  888  1   
 711  887  889  1   
 712  887  890  1   
 713  891  892  1   
 714  892  893  1   
 715  892  894  1   
 716  892  895  1   
 717  896  897  1   
 718  897  898  1   
 719  897  899  1   
 720  897  900  1   
 721  901  902  1   
 722  902  903  1   
 723  902  904  1   
 724  902  905  1   
 725  906  907  1   
 726  907  908  1   
 727  907  909  1   
 728  907  910  1   
 729  911  912  1   
 730  912  913  1   
 731  912  914  1   
 732  912  915  1   
 733  916  917  1   
 734  917  918  1   
 735  917  919  1   
 736  917  920  1   
 737  921  922  1   
 738  922  923  1   
 739  922  924  1   
 740  922  925  1   
 741  926  927  1   
 742  927  928  1   
 743  927  929  1   
 744  927  930  1   
 745  931  932  1   
 746  932  933  1   
 747  932  934  1   
 748  932  935  1   
 749  936  937  1   
 750  937  938  1   
 751  937  939  1   
 752  937  940  1   
 753  941  942  1   
 754  942  943  1   
 755  942  944  1   
 756  942  945  1   
 757  946  947  1   
 758  947  948  1   
 759  947  949  1   
 760  947  950  1   
 761  951  952  1   
 762  952  953  1   
 763  952  954  1   
 764  952  955  1   
 765  956  957  1   
 766  957  958  1   
 767  957  959  1   
 768  957  960  1   
 769  961  962  1   
 770  962  963  1   
 771  962  964  1   
 772  962  965  1   
 773  966  967  1   
 774  967  968  1   
 775  967  969  1   
 776  967  970  1   
 777  971  972  1   
 778  972  973  1   
 779  972  974  1   
 780  972  975  1   
 781  976  977  1   
 782  977  978  1   
 783  977  979  1   
 784  977  980  1   
 785  981  982  1   
 786  982  983  1   
 787  982  984  1   
 788  982  985  1   
 789  986  987  1   
 790  987  988  1   
 791  987  989  1   
 792  987  990  1   
 793  991  992  1   
 794  992  993  1   
 795  992  994  1   
 796  992  995  1   
 797  996  997  1   
 798  997  998  1   
 799  997  999  1   
 800  997 1000  1   
 801 1001 1002  1   
 802 1002 1003  1   
 803 1002 1004  1   
 804 1002 1005  1   
 805 1006 1007  1   
 806 1007 1008  1   
 807 1007 1009  1   
 808 1007 1010  1   
 809 1011 1012  1   
 810 1012 1013  1   
 811 1012 1014  1   
 812 1012 1015  1   
 813 1016 1017  1   
 814 1017 1018  1   
 815 1017 1019  1   
 816 1017 1020  1   
 817 1021 1022  1   
 818 1022 1023  1   
 819 1022 1024  1   
 820 1022 1025  1   
 821 1026 1027  1   
 822 1027 1028  1   
 823 1027 1029  1   
 824 1027 1030  1   
 825 1031 1032  1   
 826 1032 1033  1   
 827 1032 1034  1   
 828 1032 1035  1   
 829 1036 1037  1   
 830 1037 1038  1   
 831 1037 1039  1   
 832 1037 1040  1   
 833 1041 1042  1   
 834 1042 1043  1   
 835 1042 1044  1   
 836 1042 1045  1   
 837 1046 1047  1   
 838 1047 1048  1   
 839 1047 1049  1   
 840 1047 1050  1   
 841 1051 1052  1   
 842 1052 1053  1   
 843 1052 1054  1   
 844 1052 1055  1   
 845 1056 1057  1   
 846 1057 1058  1   
 847 1057 1059  1   
 848 1057 1060  1   
 849 1061 1062  1   
 850 1062 1063  1   
 851 1062 1064  1   
 852 1062 1065  1   
 853 1066 1067  1   
 854 1067 1068  1   
 855 1067 1069  1   
 856 1067 1070  1   
 857 1071 1072  1   
 858 1072 1073  1   
 859 1072 1074  1   
 860 1072 1075  1   
 861 1076 1077  1   
 862 1077 1078  1   
 863 1077 1079  1   
 864 1077 1080  1   
 865 1081 1082  1   
 866 1082 1083  1   
 867 1082 1084  1   
 868 1082 1085  1   
 869 1086 1087  1   
 870 1087 1088  1   
 871 1087 1089  1   
 872 1087 1090  1   
 873 1091 1092  1   
 874 1092 1093  1   
 875 1092 1094  1   
 876 1092 1095  1   
 877 1096 1097  1   
 878 1097 1098  1   
 879 1097 1099  1   
 880 1097 1100  1   
 881 1101 1102  1   
 882 1102 1103  1   
 883 1102 1104  1   
 884 1102 1105  1   
 885 1106 1107  1   
 886 1107 1108  1   
 887 1107 1109  1   
 888 1107 1110  1   
 889 1111 1112  1   
 890 1112 1113  1   
 891 1112 1114  1   
 892 1112 1115  1   
 893 1116 1117  1   
 894 1117 1118  1   
 895 1117 1119  1   
 896 1117 1120  1   
 897 1121 1122  1   
 898 1122 1123  1   
 899 1122 1124  1   
 900 1122 1125  1   
 901 1126 1127  1   
 902 1127 1128  1   
 903 1127 1129  1   
 904 1127 1130  1   
 905 1131 1132  1   
 906 1132 1133  1   
 907 1132 1134  1   
 908 1132 1135  1   
 909 1136 1137  1   
 910 1137 1138  1   
 911 1137 1139  1   
 912 1137 1140  1   
 913 1141 1142  1   
 914 1142 1143  1   
 915 1142 1144  1   
 916 1142 1145  1   
 917 1146 1147  1   
 918 1147 1148  1   
 919 1147 1149  1   
 920 1147 1150  1   
 921 1151 1152  1   
 922 1152 1153  1   
 923 1152 1154  1   
 924 1152 1155  1   
 925 1156 1157  1   
 926 1157 1158  1   
 927 1157 1159  1   
 928 1157 1160  1   
 929 1161 1162  1   
 930 1162 1163  1   
 931 1162 1164  1   
 932 1162 1165  1   
 933 1166 1167  1   
 934 1167 1168  1   
 935 1167 1169  1   
 936 1167 1170  1   
 937 1171 1172  1   
 938 1172 1173  1   
 939 1172 1174  1   
 940 1172 1175  1   
 941 1176 1177  1   
 942 1177 1178  1   
 943 1177 1179  1   
 944 1177 1180  1   
 945 1181 1182  1   
 946 1182 1183  1   
 947 1182 1184  1   
 948 1182 1185  1   
 949 1186 1187  1   
 950 1187 1188  1   
 951 1187 1189  1   
 952 1187 1190  1   
 953 1191 1192  1   
 954 1192 1193  1   
 955 1192 1194  1   
 956 1192 1195  1   
 957 1196 1197  1   
 958 1197 1198  1   
 959 1197 1199  1   
 960 1197 1200  1   
 961 1201 1202  1   
 962 1202 1203  1   
 963 1202 1204  1   
 964 1202 1205  1   
 965 1206 1207  1   
 966 1207 1208  1   
 967 1207 1209  1   
 968 1207 1210  1   
 969 1211 1212  1   
 970 1212 1213  1   
 971 1212 1214  1   
 972 1212 1215  1   
 973 1216 1217  1   
 974 1217 1218  1   
 975 1217 1219  1   
 976 1217 1220  1   
 977 1221 1222  1   
 978 1222 1223  1   
 979 1222 1224  1   
 980 1222 1225  1   
 981 1226 1227  1   
 982 1227 1228  1   
 983 1227 1229  1   
 984 1227 1230  1   
 985 1231 1232  1   
 986 1232 1233  1   
 987 1232 1234  1   
 988 1232 1235  1   
 989 1236 1237  1   
 990 1237 1238  1   
 991 1237 1239  1   
 992 1237 1240  1   
 993 1241 1242  1   
 994 1242 1243  1   
 995 1242 1244  1   
 996 1242 1245  1   
 997 1246 1247  1   
 998 1247 1248  1   
 999 1247 1249  1   
1000 1247 1250  1   
1001 1251 1252  1   
1002 1252 1253  1   
1003 1252 1254  1   
1004 1252 1255  1   
1005 1256 1257  1   
1006 1257 1258  1   
1007 1257 1259  1   
1008 1257 1260  1   
1009 1261 1262  1   
1010 1262 1263  1   
1011 1262 1264  1   
1012 1262 1265  1   
1013 1266 1267  1   
1014 1267 1268  1   
1015 1267 1269  1   
1016 1267 1270  1   
1017 1271 1272  1   
1018 1272 1273  1   
1019 1272 1274  1   
1020 1272 1275  1   
1021 1276 1277  1   
1022 1277 1278  1   
1023 1277 1279  1   
1024 1277 1280  1   
1025 1281 1282  1   
1026 1282 1283  1   
1027 1282 1284  1   
1028 1282 1285  1   
1029 1286 1287  1   
1030 1287 1288  1   
1031 1287 1289  1   
1032 1287 1290  1   
1033 1291 1292  1   
1034 1292 1293  1   
1035 1292 1294  1   
1036 1292 1295  1   
1037 1296 1297  1   
1038 1297 1298  1   
1039 1297 1299  1   
1040 1297 1300  1   
1041 1301 1302  1   
1042 1302 1303  1   
1043 1302 1304  1   
1044 1302 1305  1   
1045 1306 1307  1   
1046 1307 1308  1   
1047 1307 1309  1   
1048 1307 1310  1   
1049 1311 1312  1   
1050 1312 1313  1   
1051 1312 1314  1   
1052 1312 1315  1   
1053 1316 1317  1   
1054 1317 1318  1   
1055 1317 1319  1   
1056 1317 1320  1   
1057 1321 1322  1   
1058 1322 1323  1   
1059 1322 1324  1   
1060 1322 1325  1   
1061 1326 1327  1   
1062 1327 1328  1   
1063 1327 1329  1   
1064 1327 1330  1   
1065 1331 1332  1   
1066 1332 1333  1   
1067 1332 1334  1   
1068 1332 1335  1   
1069 1336 1337  1   
1070 1337 1338  1   
1071 1337 1339  1   
1072 1337 1340  1   
1073 1341 1342  1   
1074 1342 1343  1   
1075 1342 1344  1   
1076 1342 1345  1   
1077 1346 1347  1   
1078 1347 1348  1   
1079 1347 1349  1   
1080 1347 1350  1   
1081 1351 1352  1   
1082 1352 1353  1   
1083 1352 1354  1   
1084 1352 1355  1   
1085 1356 1357  1   
1086 1357 1358  1   
1087 1357 1359  1   
1088 1357 1360  1   
1089 1361 1362  1   
1090 1362 1363  1   
1091 1362 1364  1   
1092 1362 1365  1   
1093 1366 1367  1   
1094 1367 1368  1   
1095 1367 1369  1   
1096 1367 1370  1   
1097 1371 1372  1   
1098 1372 1373  1   
1099 1372 1374  1   
1100 1372 1375  1   
1101 1376 1377  1   
1102 1377 1378  1   
1103 1377 1379  1   
1104 1377 1380  1   
1105 1381 1382  1   
1106 1382 1383  1   
1107 1382 1384  1   
1108 1382 1385  1   
1109 1386 1387  1   
1110 1387 1388  1   
1111 1387 1389  1   
1112 1387 1390  1   
1113 1391 1392  1   
1114 1392 1393  1   
1115 1392 1394  1   
1116 1392 1395  1   
1117 1396 1397  1   
1118 1397 1398  1   
1119 1397 1399  1   
1120 1397 1400  1   
1121 1401 1402  1   
1122 1402 1403  1   
1123 1402 1404  1   
1124 1402 1405  1   
1125 1406 1407  1   
1126 1407 1408  1   
1127 1407 1409  1   
1128 1407 1410  1   
1129 1411 1412  1   
1130 1412 1413  1   
1131 1412 1414  1   
1132 1412 1415  1   
1133 1416 1417  1   
1134 1417 1418  1   
1135 1417 1419  1   
1136 1417 1420  1   
1137 1421 1422  1   
1138 1422 1423  1   
1139 1422 1424  1   
1140 1422 1425  1   
1141 1426 1427  1   
1142 1427 1428  1   
1143 1427 1429  1   
1144 1427 1430  1   
1145 1431 1432  1   
1146 1432 1433  1   
1147 1432 1434  1   
1148 1432 1435  1   
1149 1436 1437  1   
1150 1437 1438  1   
1151 1437 1439  1   
1152 1437 1440  1   
1153 1441 1442  1   
1154 1442 1443  1   
1155 1442 1444  1   
1156 1442 1445  1   
1157 1446 1447  1   
1158 1447 1448  1   
1159 1447 1449  1   
1160 1447 1450  1   
1161 1451 1452  1   
1162 1452 1453  1   
1163 1452 1454  1   
1164 1452 1455  1   
1165 1456 1457  1   
1166 1457 1458  1   
1167 1457 1459  1   
1168 1457 1460  1   
1169 1461 1462  1   
1170 1462 1463  1   
1171 1462 1464  1   
1172 1462 1465  1   
1173 1466 1467  1   
1174 1467 1468  1   
1175 1467 1469  1   
1176 1467 1470  1   
1177 1471 1472  1   
1178 1472 1473  1   
1179 1472 1474  1   
1180 1472 1475  1   
1181 1476 1477  1   
1182 1477 1478  1   
1183 1477 1479  1   
1184 1477 1480  1   
1185 1481 1482  1   
1186 1482 1483  1   
1187 1482 1484  1   
1188 1482 1485  1   
1189 1486 1487  1   
1190 1487 1488  1   
1191 1487 1489  1   
1192 1487 1490  1   
1193 1491 1492  1   
1194 1492 1493  1   
1195 1492 1494  1   
1196 1492 1495  1   
1197 1496 1497  1   
1198 1497 1498  1   
1199 1497 1499  1   
1200 1497 1500  1   
1201 1501 1502  1   
1202 1502 1503  1   
1203 1502 1504  1   
1204 1502 1505  1   
1205 1506 1507  1   
1206 1507 1508  1   
1207 1507 1509  1   
1208 1507 1510  1   
1209 1511 1512  1   
1210 1512 1513  1   
1211 1512 1514  1   
1212 1512 1515  1   
1213 1516 1517  1   
1214 1517 1518  1   
1215 1517 1519  1   
1216 1517 1520  1   
1217 1521 1522  1   
1218 1522 1523  1   
1219 1522 1524  1   
1220 1522 1525  1   
1221 1526 1527  1   
1222 1527 1528  1   
1223 1527 1529  1   
1224 1527 1530  1   
1225 1531 1532  1   
1226 1532 1533  1   
1227 1532 1534  1   
1228 1532 1535  1   
1229 1536 1537  1   
1230 1537 1538  1   
1231 1537 1539  1   
1232 1537 1540  1   
1233 1541 1542  1   
1234 1542 1543  1   
1235 1542 1544  1   
1236 1542 1545  1   
1237 1546 1547  1   
1238 1547 1548  1   
1239 1547 1549  1   
1240 1547 1550  1   
1241 1551 1552  1   
1242 1552 1553  1   
1243 1552 1554  1   
1244 1552 1555  1   
1245 1556 1557  1   
1246 1557 1558  1   
1247 1557 1559  1   
1248 1557 1560  1   
1249 1561 1562  1   
1250 1562 1563  1   
1251 1562 1564  1   
1252 1562 1565  1   
1253 1566 1567  1   
1254 1567 1568  1   
1255 1567 1569  1   
1256 1567 1570  1   
1257 1571 1572  1   
1258 1572 1573  1   
1259 1572 1574  1   
1260 1572 1575  1   
1261 1576 1577  1   
1262 1577 1578  1   
1263 1577 1579  1   
1264 1577 1580  1   
1265 1581 1582  1   
1266 1582 1583  1   
1267 1582 1584  1   
1268 1582 1585  1   
1269 1586 1587  1   
1270 1587 1588  1   
1271 1587 1589  1   
1272 1587 1590  1   
1273 1591 1592  1   
1274 1592 1593  1   
1275 1592 1594  1   
1276 1592 1595  1   
1277 1596 1597  1   
1278 1597 1598  1   
1279 1597 1599  1   
1280 1597 1600  1   
1281 1601 1602  1   
1282 1602 1603  1   
1283 1602 1604  1   
1284 1602 1605  1   
1285 1606 1607  1   
1286 1607 1608  1   
1287 1607 1609  1   
1288 1607 1610  1   
1289 1611 1612  1   
1290 1612 1613  1   
1291 1612 1614  1   
1292 1612 1615  1   
1293 1616 1617  1   
1294 1617 1618  1   
1295 1617 1619  1   
1296 1617 1620  1   
1297 1621 1622  1   
1298 1622 1623  1   
1299 1622 1624  1   
1300 1622 1625  1   
1301 1626 1627  1   
1302 1627 1628  1   
1303 1627 1629  1   
1304 1627 1630  1   
1305 1631 1632  1   
1306 1632 1633  1   
1307 1632 1634  1   
1308 1632 1635  1   
1309 1636 1637  1   
1310 1637 1638  1   
1311 1637 1639  1   
1312 1637 1640  1   
1313 1641 1642  1   
1314 1642 1643  1   
1315 1642 1644  1   
1316 1642 1645  1   
1317 1646 1647  1   
1318 1647 1648  1   
1319 1647 1649  1   
1320 1647 1650  1   
1321 1651 1652  1   
1322 1652 1653  1   
1323 1652 1654  1   
1324 1652 1655  1   
1325 1656 1657  1   
1326 1657 1658  1   
1327 1657 1659  1   
1328 1657 1660  1   
1329 1661 1662  1   
1330 1662 1663  1   
1331 1662 1664  1   
1332 1662 1665  1   
1333 1666 1667  1   
1334 1667 1668  1   
1335 1667 1669  1   
1336 1667 1670  1   
1337 1671 1672  1   
1338 1672 1673  1   
1339 1672 1674  1   
1340 1672 1675  1   
1341 1676 1677  1   
1342 1677 1678  1   
1343 1677 1679  1   
1344 1677 1680  1   
1345 1681 1682  1   
1346 1682 1683  1   
1347 1682 1684  1   
1348 1682 1685  1   
1349 1686 1687  1   
1350 1687 1688  1   
1351 1687 1689  1   
1352 1687 1690  1   
1353 1691 1692  1   
1354 1692 1693  1   
1355 1692 1694  1   
1356 1692 1695  1   
1357 1696 1697  1   
1358 1697 1698  1   
1359 1697 1699  1   
1360 1697 1700  1   
1361 1701 1702  1   
1362 1702 1703  1   
1363 1702 1704  1   
1364 1702 1705  1   
1365 1706 1707  1   
1366 1707 1708  1   
1367 1707 1709  1   
1368 1707 1710  1   
1369 1711 1712  1   
1370 1712 1713  1   
1371 1712 1714  1   
1372 1712 1715  1   
1373 1716 1717  1   
1374 1717 1718  1   
1375 1717 1719  1   
1376 1717 1720  1   
1377 1721 1722  1   
1378 1722 1723  1   
1379 1722 1724  1   
1380 1722 1725  1   
1381 1726 1727  1   
1382 1727 1728  1   
1383 1727 1729  1   
1384 1727 1730  1   
1385 1731 1732  1   
1386 1732 1733  1   
1387 1732 1734  1   
1388 1732 1735  1   
1389 1736 1737  1   
1390 1737 1738  1   
1391 1737 1739  1   
1392 1737 1740  1   
1393 1741 1742  1   
1394 1742 1743  1   
1395 1742 1744  1   
1396 1742 1745  1   
1397 1746 1747  1   
1398 1747 1748  1   
1399 1747 1749  1   
1400 1747 1750  1   
1401 1751 1752  1   
1402 1752 1753  1   
1403 1752 1754  1   
1404 1752 1755  1   
1405 1756 1757  1   
1406 1757 1758  1   
1407 1757 1759  1   
1408 1757 1760  1   
1409 1761 1762  1   
1410 1762 1763  1   
1411 1762 1764  1   
1412 1762 1765  1   
1413 1766 1767  1   
1414 1767 1768  1   
1415 1767 1769  1   
1416 1767 1770  1   
1417 1771 1772  1   
1418 1772 1773  1   
1419 1772 1774  1   
1420 1772 1775  1   
1421 1776 1777  1   
1422 1777 1778  1   
1423 1777 1779  1   
1424 1777 1780  1   
1425 1781 1782  1   
1426 1782 1783  1   
1427 1782 1784  1   
1428 1782 1785  1   
1429 1786 1787  1   
1430 1787 1788  1   
1431 1787 1789  1   
1432 1787 1790  1   
1433 1791 1792  1   
1434 1792 1793  1   
1435 1792 1794  1   
1436 1792 1795  1   
1437 1796 1797  1   
1438 1797 1798  1   
1439 1797 1799  1   
1440 1797 1800  1   
1441 1801 1802  1   
1442 1802 1803  1   
1443 1802 1804  1   
1444 1802 1805  1   
1445 1806 1807  1   
1446 1807 1808  1   
1447 1807 1809  1   
1448 1807 1810  1   
1449 1811 1812  1   
1450 1812 1813  1   
1451 1812 1814  1   
1452 1812 1815  1   
1453 1816 1817  1   
1454 1817 1818  1   
1455 1817 1819  1   
1456 1817 1820  1   
1457 1821 1822  1   
1458 1822 1823  1   
1459 1822 1824  1   
1460 1822 1825  1   
1461 1826 1827  1   
1462 1827 1828  1   
1463 1827 1829  1   
1464 1827 1830  1   
1465 1831 1832  1   
1466 1832 1833  1   
1467 1832 1834  1   
1468 1832 1835  1   
1469 1836 1837  1   
1470 1837 1838  1   
1471 1837 1839  1   
1472 1837 1840  1   
1473 1841 1842  1   
1474 1842 1843  1   
1475 1842 1844  1   
1476 1842 1845  1   
1477 1846 1847  1   
1478 1847 1848  1   
1479 1847 1849  1   
1480 1847 1850  1   
1481 1851 1852  1   
1482 1852 1853  1   
1483 1852 1854  1   
1484 1852 1855  1   
1485 1856 1857  1   
1486 1857 1858  1   
1487 1857 1859  1   
1488 1857 1860  1   
1489 1861 1862  1   
1490 1862 1863  1   
1491 1862 1864  1   
1492 1862 1865  1   
1493 1866 1867  1   
1494 1867 1868  1   
1495 1867 1869  1   
1496 1867 1870  1   
1497 1871 1872  1   
1498 1872 1873  1   
1499 1872 1874  1   
1500 1872 1875  1   
1501 1876 1877  1   
1502 1877 1878  1   
1503 1877 1879  1   
1504 1877 1880  1   
1505 1881 1882  1   
1506 1882 1883  1   
1507 1882 1884  1   
1508 1882 1885  1   
1509 1886 1887  1   
1510 1887 1888  1   
1511 1887 1889  1   
1512 1887 1890  1   
1513 1891 1892  1   
1514 1892 1893  1   
1515 1892 1894  1   
1516 1892 1895  1   
1517 1896 1897  1   
1518 1897 1898  1   
1519 1897 1899  1   
1520 1897 1900  1   
1521 1901 1902  1   
1522 1902 1903  1   
1523 1902 1904  1   
1524 1902 1905  1   
1525 1906 1907  1   
1526 1907 1908  1   
1527 1907 1909  1   
1528 1907 1910  1   
1529 1911 1912  1   
1530 1912 1913  1   
1531 1912 1914  1   
1532 1912 1915  1   
1533 1916 1917  1   
1534 1917 1918  1   
1535 1917 1919  1   
1536 1917 1920  1   
1537 1921 1922  1   
1538 1922 1923  1   
1539 1922 1924  1   
1540 1922 1925  1   
1541 1926 1927  1   
1542 1927 1928  1   
1543 1927 1929  1   
1544 1927 1930  1   
1545 1931 1932  1   
1546 1932 1933  1   
1547 1932 1934  1   
1548 1932 1935  1   
1549 1936 1937  1   
1550 1937 1938  1   
1551 1937 1939  1   
1552 1937 1940  1   
1553 1941 1942  1   
1554 1942 1943  1   
1555 1942 1944  1   
1556 1942 1945  1   
1557 1946 1947  1   
1558 1947 1948  1   
1559 1947 1949  1   
1560 1947 1950  1   
1561 1951 1952  1   
1562 1952 1953  1   
1563 1952 1954  1   
1564 1952 1955  1   
1565 1956 1957  1   
1566 1957 1958  1   
1567 1957 1959  1   
1568 1957 1960  1   
1569 1961 1962  1   
1570 1962 1963  1   
1571 1962 1964  1   
1572 1962 1965  1   
1573 1966 1967  1   
1574 1967 1968  1   
1575 1967 1969  1   
1576 1967 1970  1   
1577 1971 1972  1   
1578 1972 1973  1   
1579 1972 1974  1   
1580 1972 1975  1   
1581 1976 1977  1   
1582 1977 1978  1   
1583 1977 1979  1   
1584 1977 1980  1   
1585 1981 1982  1   
1586 1982 1983  1   
1587 1982 1984  1   
1588 1982 1985  1   
1589 1986 1987  1   
1590 1987 1988  1   
1591 1987 1989  1   
1592 1987 1990  1   
1593 1991 1992  1   
1594 1992 1993  1   
1595 1992 1994  1   
1596 1992 1995  1   
1597 1996 1997  1   
1598 1997 1998  1   
1599 1997 1999  1   
1600 1997 2000  1   
1601 2001 2002  1   
1602 2002 2003  1   
1603 2002 2004  1   
1604 2002 2005  1   
1605 2006 2007  1   
1606 2007 2008  1   
1607 2007 2009  1   
1608 2007 2010  1   
1609 2011 2012  1   
1610 2012 2013  1   
1611 2012 2014  1   
1612 2012 2015  1   
1613 2016 2017  1   
1614 2017 2018  1   
1615 2017 2019  1   
1616 2017 2020  1   
1617 2021 2022  1   
1618 2022 2023  1   
1619 2022 2024  1   
1620 2022 2025  1   
1621 2026 2027  1   
1622 2027 2028  1   
1623 2027 2029  1   
1624 2027 2030  1   
1625 2031 2032  1   
1626 2032 2033  1   
1627 2032 2034  1   
1628 2032 2035  1   
1629 2036 2037  1   
1630 2037 2038  1   
1631 2037 2039  1   
1632 2037 2040  1   
1633 2041 2042  1   
1634 2042 2043  1   
1635 2042 2044  1   
1636 2042 2045  1   
1637 2046 2047  1   
1638 2047 2048  1   
1639 2047 2049  1   
1640 2047 2050  1   
1641 2051 2052  1   
1642 2052 2053  1   
1643 2052 2054  1   
1644 2052 2055  1   
1645 2056 2057  1   
1646 2057 2058  1   
1647 2057 2059  1   
1648 2057 2060  1   
1649 2061 2062  1   
1650 2062 2063  1   
1651 2062 2064  1   
1652 2062 2065  1   
1653 2066 2067  1   
1654 2067 2068  1   
1655 2067 2069  1   
1656 2067 2070  1   
1657 2071 2072  1   
1658 2072 2073  1   
1659 2072 2074  1   
1660 2072 2075  1   
1661 2076 2077  1   
1662 2077 2078  1   
1663 2077 2079  1   
1664 2077 2080  1   
1665 2081 2082  1   
1666 2082 2083  1   
1667 2082 2084  1   
1668 2082 2085  1   
1669 2086 2087  1   
1670 2087 2088  1   
1671 2087 2089  1   
1672 2087 2090  1   
1673 2091 2092  1   
1674 2092 2093  1   
1675 2092 2094  1   
1676 2092 2095  1   
1677 2096 2097  1   
1678 2097 2098  1   
1679 2097 2099  1   
1680 2097 2100  1   
1681 2101 2102  1   
1682 2102 2103  1   
1683 2102 2104  1   
1684 2102 2105  1   
1685 2106 2107  1   
1686 2107 2108  1   
1687 2107 2109  1   
1688 2107 2110  1   
1689 2111 2112  1   
1690 2112 2113  1   
1691 2112 2114  1   
1692 2112 2115  1   
1693 2116 2117  1   
1694 2117 2118  1   
1695 2117 2119  1   
1696 2117 2120  1   
1697 2121 2122  1   
1698 2122 2123  1   
1699 2122 2124  1   
1700 2122 2125  1   
1701 2126 2127  1   
1702 2127 2128  1   
1703 2127 2129  1   
1704 2127 2130  1   
1705 2131 2132  1   
1706 2132 2133  1   
1707 2132 2134  1   
1708 2132 2135  1   
1709 2136 2137  1   
1710 2137 2138  1   
1711 2137 2139  1   
1712 2137 2140  1   
1713 2141 2142  1   
1714 2142 2143  1   
1715 2142 2144  1   
1716 2142 2145  1   
1717 2146 2147  1   
1718 2147 2148  1   
1719 2147 2149  1   
1720 2147 2150  1   
1721 2151 2152  1   
1722 2152 2153  1   
1723 2152 2154  1   
1724 2152 2155  1   
1725 2156 2157  1   
1726 2157 2158  1   
1727 2157 2159  1   
1728 2157 2160  1   
1729 2161 2162  1   
1730 2162 2163  1   
1731 2162 2164  1   
1732 2162 2165  1   
1733 2166 2167  1   
1734 2167 2168  1   
1735 2167 2169  1   
1736 2167 2170  1   
1737 2171 2172  1   
1738 2172 2173  1   
1739 2172 2174  1   
1740 2172 2175  1   
1741 2176 2177  1   
1742 2177 2178  1   
1743 2177 2179  1   
1744 2177 2180  1   
1745 2181 2182  1   
1746 2182 2183  1   
1747 2182 2184  1   
1748 2182 2185  1   
1749 2186 2187  1   
1750 2187 2188  1   
1751 2187 2189  1   
1752 2187 2190  1   
1753 2191 2192  1   
1754 2192 2193  1   
1755 2192 2194  1   
1756 2192 2195  1   
1757 2196 2197  1   
1758 2197 2198  1   
1759 2197 2199  1   
1760 2197 2200  1   
1761 2201 2202  1   
1762 2202 2203  1   
1763 2202 2204  1   
1764 2202 2205  1   
1765 2206 2207  1   
1766 2207 2208  1   
1767 2207 2209  1   
1768 2207 2210  1   
1769 2211 2212  1   
1770 2212 2213  1   
1771 2212 2214  1   
1772 2212 2215  1   
1773 2216 2217  1   
1774 2217 2218  1   
1775 2217 2219  1   
1776 2217 2220  1   
1777 2221 2222  1   
1778 2222 2223  1   
1779 2222 2224  1   
1780 2222 2225  1   
1781 2226 2227  1   
1782 2227 2228  1   
1783 2227 2229  1   
1784 2227 2230  1   
1785 2231 2232  1   
1786 2232 2233  1   
1787 2232 2234  1   
1788 2232 2235  1   
1789 2236 2237  1   
1790 2237 2238  1   
1791 2237 2239  1   
1792 2237 2240  1   
1793 2241 2242  1   
1794 2242 2243  1   
1795 2242 2244  1   
1796 2242 2245  1   
1797 2246 2247  1   
1798 2247 2248  1   
1799 2247 2249  1   
1800 2247 2250  1   
1801 2251 2252  1   
1802 2252 2253  1   
1803 2252 2254  1   
1804 2252 2255  1   
1805 2256 2257  1   
1806 2257 2258  1   
1807 2257 2259  1   
1808 2257 2260  1   
1809 2261 2262  1   
1810 2262 2263  1   
1811 2262 2264  1   
1812 2262 2265  1   
1813 2266 2267  1   
1814 2267 2268  1   
1815 2267 2269  1   
1816 2267 2270  1   
1817 2271 2272  1   
1818 2272 2273  1   
1819 2272 2274  1   
1820 2272 2275  1   
1821 2276 2277  1   
1822 2277 2278  1   
1823 2277 2279  1   
1824 2277 2280  1   
1825 2281 2282  1   
1826 2282 2283  1   
1827 2282 2284  1   
1828 2282 2285  1   
1829 2286 2287  1   
1830 2287 2288  1   
1831 2287 2289  1   
1832 2287 2290  1   
1833 2291 2292  1   
1834 2292 2293  1   
1835 2292 2294  1   
1836 2292 2295  1   
1837 2296 2297  1   
1838 2297 2298  1   
1839 2297 2299  1   
1840 2297 2300  1   
1841 2301 2302  1   
1842 2302 2303  1   
1843 2302 2304  1   
1844 2302 2305  1   
1845 2306 2307  1   
1846 2307 2308  1   
1847 2307 2309  1   
1848 2307 2310  1   
1849 2311 2312  1   
1850 2312 2313  1   
1851 2312 2314  1   
1852 2312 2315  1   
1853 2316 2317  1   
1854 2317 2318  1   
1855 2317 2319  1   
1856 2317 2320  1   
1857 2321 2322  1   
1858 2322 2323  1   
1859 2322 2324  1   
1860 2322 2325  1   
1861 2326 2327  1   
1862 2327 2328  1   
1863 2327 2329  1   
1864 2327 2330  1   
1865 2331 2332  1   
1866 2332 2333  1   
1867 2332 2334  1   
1868 2332 2335  1   
1869 2336 2337  1   
1870 2337 2338  1   
1871 2337 2339  1   
1872 2337 2340  1   
1873 2341 2342  1   
1874 2342 2343  1   
1875 2342 2344  1   
1876 2342 2345  1   
1877 2346 2347  1   
1878 2347 2348  1   
1879 2347 2349  1   
1880 2347 2350  1   
1881 2351 2352  1   
1882 2352 2353  1   
1883 2352 2354  1   
1884 2352 2355  1   
1885 2356 2357  1   
1886 2357 2358  1   
1887 2357 2359  1   
1888 2357 2360  1   
1889 2361 2362  1   
1890 2362 2363  1   
1891 2362 2364  1   
1892 2362 2365  1   
1893 2366 2367  1   
1894 2367 2368  1   
1895 2367 2369  1   
1896 2367 2370  1   
1897 2371 2372  1   
1898 2372 2373  1   
1899 2372 2374  1   
1900 2372 2375  1   
1901 2376 2377  1   
1902 2377 2378  1   
1903 2377 2379  1   
1904 2377 2380  1   
1905 2381 2382  1   
1906 2382 2383  1   
1907 2382 2384  1   
1908 2382 2385  1   
1909 2386 2387  1   
1910 2387 2388  1   
1911 2387 2389  1   
1912 2387 2390  1   
1913 2391 2392  1   
1914 2392 2393  1   
1915 2392 2394  1   
1916 2392 2395  1   
1917 2396 2397  1   
1918 2397 2398  1   
1919 2397 2399  1   
1920 2397 2400  1   
1921 2401 2402  1   
1922 2402 2403  1   
1923 2402 2404  1   
1924 2402 2405  1   
1925 2406 2407  1   
1926 2407 2408  1   
1927 2407 2409  1   
1928 2407 2410  1   
1929 2411 2412  1   
1930 2412 2413  1   
1931 2412 2414  1   
1932 2412 2415  1   
1933 2416 2417  1   
1934 2417 2418  1   
1935 2417 2419  1   
1936 2417 2420  1   
1937 2421 2422  1   
1938 2422 2423  1   
1939 2422 2424  1   
1940 2422 2425  1   
1941 2426 2427  1   
1942 2427 2428  1   
1943 2427 2429  1   
1944 2427 2430  1   
1945 2431 2432  1   
1946 2432 2433  1   
1947 2432 2434  1   
1948 2432 2435  1   
1949 2436 2437  1   
1950 2437 2438  1   
1951 2437 2439  1   
1952 2437 2440  1   
1953 2441 2442  1   
1954 2442 2443  1   
1955 2442 2444  1   
1956 2442 2445  1   
1957 2446 2447  1   
1958 2447 2448  1   
1959 2447 2449  1   
1960 2447 2450  1   
1961 2451 2452  1   
1962 2452 2453  1   
1963 2452 2454  1   
1964 2452 2455  1   
1965 2456 2457  1   
1966 2457 2458  1   
1967 2457 2459  1   
1968 2457 2460  1   
1969 2461 2462  1   
1970 2462 2463  1   
1971 2462 2464  1   
1972 2462 2465  1   
1973 2466 2467  1   
1974 2467 2468  1   
1975 2467 2469  1   
1976 2467 2470  1   
@<TRIPOS>SUBSTRUCTURE
  1 CCL4    2 GROUP 4 **** **** 0
  2 CCL4    7 GROUP 4 **** **** 0
  3 CCL4   12 GROUP 4 **** **** 0
  4 CCL4   17 GROUP 4 **** **** 0
  5 CCL4   22 GROUP 4 **** **** 0
  6 CCL4   27 GROUP 4 **** **** 0
  7 CCL4   32 GROUP 4 **** **** 0
  8 CCL4   37 GROUP 4 **** **** 0
  9 CCL4   42 GROUP 4 **** **** 0
 10 CCL4   47 GROUP 4 **** **** 0
 11 CCL4   52 GROUP 4 **** **** 0
 12 CCL4   57 GROUP 4 **** **** 0
 13 CCL4   62 GROUP 4 **** **** 0
 14 CCL4   67 GROUP 4 **** **** 0
 15 CCL4   72 GROUP 4 **** **** 0
 16 CCL4   77 GROUP 4 **** **** 0
 17 CCL4   82 GROUP 4 **** **** 0
 18 CCL4   87 GROUP 4 **** **** 0
 19 CCL4   92 GROUP 4 **** **** 0
 20 CCL4   97 GROUP 4 **** **** 0
 21 CCL4  102 GROUP 4 **** **** 0
 22 CCL4  107 GROUP 4 **** **** 0
 23 CCL4  112 GROUP 4 **** **** 0
 24 CCL4  117 GROUP 4 **** **** 0
 25 CCL4  122 GROUP 4 **** **** 0
 26 CCL4  127 GROUP 4 **** **** 0
 27 CCL4  132 GROUP 4 **** **** 0
 28 CCL4  137 GROUP 4 **** **** 0
 29 CCL4  142 GROUP 4 **** **** 0
 30 CCL4  147 GROUP 4 **** **** 0
 31 CCL4  152 GROUP 4 **** **** 0
 32 CCL4  157 GROUP 4 **** **** 0
 33 CCL4  162 GROUP 4 **** **** 0
 34 CCL4  167 GROUP 4 **** **** 0
 35 CCL4  172 GROUP 4 **** **** 0
 36 CCL4  177 GROUP 4 **** **** 0
 37 CCL4  182 GROUP 4 **** **** 0
 38 CCL4  187 GROUP 4 **** **** 0
 39 CCL4  192 GROUP 4 **** **** 0
 40 CCL4  197 GROUP 4 **** **** 0
 41 CCL4  202 GROUP 4 **** **** 0
 42 CCL4  207 GROUP 4 **** **** 0
 43 CCL4  212 GROUP 4 **** **** 0
 44 CCL4  217 GROUP 4 **** **** 0
 45 CCL4  222 GROUP 4 **** **** 0
 46 CCL4  227 GROUP 4 **** **** 0
 47 CCL4  232 GROUP 4 **** **** 0
 48 CCL4  237 GROUP 4 **** **** 0
 49 CCL4  242 GROUP 4 **** **** 0
 50 CCL4  247 GROUP 4 **** **** 0
 51 CCL4  252 GROUP 4 **** **** 0
 52 CCL4  257 GROUP 4 **** **** 0
 53 CCL4  262 GROUP 4 **** **** 0
 54 CCL4  267 GROUP 4 **** **** 0
 55 CCL4  272 GROUP 4 **** **** 0
 56 CCL4  277 GROUP 4 **** **** 0
 57 CCL4  282 GROUP 4 **** **** 0
 58 CCL4  287 GROUP 4 **** **** 0
 59 CCL4  292 GROUP 4 **** **** 0
 60 CCL4  297 GROUP 4 **** **** 0
 61 CCL4  302 GROUP 4 **** **** 0
 62 CCL4  307 GROUP 4 **** **** 0
 63 CCL4  312 GROUP 4 **** **** 0
 64 CCL4  317 GROUP 4 **** **** 0
 65 CCL4  322 GROUP 4 **** **** 0
 66 CCL4  327 GROUP 4 **** **** 0
 67 CCL4  332 GROUP 4 **** **** 0
 68 CCL4  337 GROUP 4 **** **** 0
 69 CCL4  342 GROUP 4 **** **** 0
 70 CCL4  347 GROUP 4 **** **** 0
 71 CCL4  352 GROUP 4 **** **** 0
 72 CCL4  357 GROUP 4 **** **** 0
 73 CCL4  362 GROUP 4 **** **** 0
 74 CCL4  367 GROUP 4 **** **** 0
 75 CCL4  372 GROUP 4 **** **** 0
 76 CCL4  377 GROUP 4 **** **** 0
 77 CCL4  382 GROUP 4 **** **** 0
 78 CCL4  387 GROUP 4 **** **** 0
 79 CCL4  392 GROUP 4 **** **** 0
 80 CCL4  397 GROUP 4 **** **** 0
 81 CCL4  402 GROUP 4 **** **** 0
 82 CCL4  407 GROUP 4 **** **** 0
 83 CCL4  412 GROUP 4 **** **** 0
 84 CCL4  417 GROUP 4 **** **** 0
 85 CCL4  422 GROUP 4 **** **** 0
 86 CCL4  427 GROUP 4 **** **** 0
 87 CCL4  432 GROUP 4 **** **** 0
 88 CCL4  437 GROUP 4 **** **** 0
 89 CCL4  442 GROUP 4 **** **** 0
 90 CCL4  447 GROUP 4 **** **** 0
 91 CCL4  452 GROUP 4 **** **** 0
 92 CCL4  457 GROUP 4 **** **** 0
 93 CCL4  462 GROUP 4 **** **** 0
 94 CCL4  467 GROUP 4 **** **** 0
 95 CCL4  472 GROUP 4 **** **** 0
 96 CCL4  477 GROUP 4 **** **** 0
 97 CCL4  482 GROUP 4 **** **** 0
 98 CCL4  487 GROUP 4 **** **** 0
 99 CCL4  492 GROUP 4 **** **** 0
100 CCL4  497 GROUP 4 **** **** 0
101 CCL4  502 GROUP 4 **** **** 0
102 CCL4  507 GROUP 4 **** **** 0
103 CCL4  512 GROUP 4 **** **** 0
104 CCL4  517 GROUP 4 **** **** 0
105 CCL4  522 GROUP 4 **** **** 0
106 CCL4  527 GROUP 4 **** **** 0
107 CCL4  532 GROUP 4 **** **** 0
108 CCL4  537 GROUP 4 **** **** 0
109 CCL4  542 GROUP 4 **** **** 0
110 CCL4  547 GROUP 4 **** **** 0
111 CCL4  552 GROUP 4 **** **** 0
112 CCL4  557 GROUP 4 **** **** 0
113 CCL4  562 GROUP 4 **** **** 0
114 CCL4  567 GROUP 4 **** **** 0
115 CCL4  572 GROUP 4 **** **** 0
116 CCL4  577 GROUP 4 **** **** 0
117 CCL4  582 GROUP 4 **** **** 0
118 CCL4  587 GROUP 4 **** **** 0
119 CCL4  592 GROUP 4 **** **** 0
120 CCL4  597 GROUP 4 **** **** 0
121 CCL4  602 GROUP 4 **** **** 0
122 CCL4  607 GROUP 4 **** **** 0
123 CCL4  612 GROUP 4 **** **** 0
124 CCL4  617 GROUP 4 **** **** 0
125 CCL4  622 GROUP 4 **** **** 0
126 CCL4  627 GROUP 4 **** **** 0
127 CCL4  632 GROUP 4 **** **** 0
128 CCL4  637 GROUP 4 **** **** 0
129 CCL4  642 GROUP 4 **** **** 0
130 CCL4  647 GROUP 4 **** **** 0
131 CCL4  652 GROUP 4 **** **** 0
132 CCL4  657 GROUP 4 **** **** 0
133 CCL4  662 GROUP 4 **** **** 0
134 CCL4  667 GROUP 4 **** **** 0
135 CCL4  672 GROUP 4 **** **** 0
136 CCL4  677 GROUP 4 **** **** 0
137 CCL4  682 GROUP 4 **** **** 0
138 CCL4  687 GROUP 4 **** **** 0
139 CCL4  692 GROUP 4 **** **** 0
140 CCL4  697 GROUP 4 **** **** 0
141 CCL4  702 GROUP 4 **** **** 0
142 CCL4  707 GROUP 4 **** **** 0
143 CCL4  712 GROUP 4 **** **** 0
144 CCL4  717 GROUP 4 **** **** 0
145 CCL4  722 GROUP 4 **** **** 0
146 CCL4  727 GROUP 4 **** **** 0
147 CCL4  732 GROUP 4 **** **** 0
148 CCL4  737 GROUP 4 **** **** 0
149 CCL4  742 GROUP 4 **** **** 0
150 CCL4  747 GROUP 4 **** **** 0
151 CCL4  752 GROUP 4 **** **** 0
152 CCL4  757 GROUP 4 **** **** 0
153 CCL4  762 GROUP 4 **** **** 0
154 CCL4  767 GROUP 4 **** **** 0
155 CCL4  772 GROUP 4 **** **** 0
156 CCL4  777 GROUP 4 **** **** 0
157 CCL4  782 GROUP 4 **** **** 0
158 CCL4  787 GROUP 4 **** **** 0
159 CCL4  792 GROUP 4 **** **** 0
160 CCL4  797 GROUP 4 **** **** 0
161 CCL4  802 GROUP 4 **** **** 0
162 CCL4  807 GROUP 4 **** **** 0
163 CCL4  812 GROUP 4 **** **** 0
164 CCL4  817 GROUP 4 **** **** 0
165 CCL4  822 GROUP 4 **** **** 0
166 CCL4  827 GROUP 4 **** **** 0
167 CCL4  832 GROUP 4 **** **** 0
168 CCL4  837 GROUP 4 **** **** 0
169 CCL4  842 GROUP 4 **** **** 0
170 CCL4  847 GROUP 4 **** **** 0
171 CCL4  852 GROUP 4 **** **** 0
172 CCL4  857 GROUP 4 **** **** 0
173 CCL4  862 GROUP 4 **** **** 0
174 CCL4  867 GROUP 4 **** **** 0
175 CCL4  872 GROUP 4 **** **** 0
176 CCL4  877 GROUP 4 **** **** 0
177 CCL4  882 GROUP 4 **** **** 0
178 CCL4  887 GROUP 4 **** **** 0
179 CCL4  892 GROUP 4 **** **** 0
180 CCL4  897 GROUP 4 **** **** 0
181 CCL4  902 GROUP 4 **** **** 0
182 CCL4  907 GROUP 4 **** **** 0
183 CCL4  912 GROUP 4 **** **** 0
184 CCL4  917 GROUP 4 **** **** 0
185 CCL4  922 GROUP 4 **** **** 0
186 CCL4  927 GROUP 4 **** **** 0
187 CCL4  932 GROUP 4 **** **** 0
188 CCL4  937 GROUP 4 **** **** 0
189 CCL4  942 GROUP 4 **** **** 0
190 CCL4  947 GROUP 4 **** **** 0
191 CCL4  952 GROUP 4 **** **** 0
192 CCL4  957 GROUP 4 **** **** 0
193 CCL4  962 GROUP 4 **** **** 0
194 CCL4  967 GROUP 4 **** **** 0
195 CCL4  972 GROUP 4 **** **** 0
196 CCL4  977 GROUP 4 **** **** 0
197 CCL4  982 GROUP 4 **** **** 0
198 CCL4  987 GROUP 4 **** **** 0
199 CCL4  992 GROUP 4 **** **** 0
200 CCL4  997 GROUP 4 **** **** 0
201 CCL4 1002 GROUP 4 **** **** 0
202 CCL4 1007 GROUP 4 **** **** 0
203 CCL4 1012 GROUP 4 **** **** 0
204 CCL4 1017 GROUP 4 **** **** 0
205 CCL4 1022 GROUP 4 **** **** 0
206 CCL4 1027 GROUP 4 **** **** 0
207 CCL4 1032 GROUP 4 **** **** 0
208 CCL4 1037 GROUP 4 **** **** 0
209 CCL4 1042 GROUP 4 **** **** 0
210 CCL4 1047 GROUP 4 **** **** 0
211 CCL4 1052 GROUP 4 **** **** 0
212 CCL4 1057 GROUP 4 **** **** 0
213 CCL4 1062 GROUP 4 **** **** 0
214 CCL4 1067 GROUP 4 **** **** 0
215 CCL4 1072 GROUP 4 **** **** 0
216 CCL4 1077 GROUP 4 **** **** 0
217 CCL4 1082 GROUP 4 **** **** 0
218 CCL4 1087 GROUP 4 **** **** 0
219 CCL4 1092 GROUP 4 **** **** 0
220 CCL4 1097 GROUP 4 **** **** 0
221 CCL4 1102 GROUP 4 **** **** 0
222 CCL4 1107 GROUP 4 **** **** 0
223 CCL4 1112 GROUP 4 **** **** 0
224 CCL4 1117 GROUP 4 **** **** 0
225 CCL4 1122 GROUP 4 **** **** 0
226 CCL4 1127 GROUP 4 **** **** 0
227 CCL4 1132 GROUP 4 **** **** 0
228 CCL4 1137 GROUP 4 **** **** 0
229 CCL4 1142 GROUP 4 **** **** 0
230 CCL4 1147 GROUP 4 **** **** 0
231 CCL4 1152 GROUP 4 **** **** 0
232 CCL4 1157 GROUP 4 **** **** 0
233 CCL4 1162 GROUP 4 **** **** 0
234 CCL4 1167 GROUP 4 **** **** 0
235 CCL4 1172 GROUP 4 **** **** 0
236 CCL4 1177 GROUP 4 **** **** 0
237 CCL4 1182 GROUP 4 **** **** 0
238 CCL4 1187 GROUP 4 **** **** 0
239 CCL4 1192 GROUP 4 **** **** 0
240 CCL4 1197 GROUP 4 **** **** 0
241 CCL4 1202 GROUP 4 **** **** 0
242 CCL4 1207 GROUP 4 **** **** 0
243 CCL4 1212 GROUP 4 **** **** 0
244 CCL4 1217 GROUP 4 **** **** 0
245 CCL4 1222 GROUP 4 **** **** 0
246 CCL4 1227 GROUP 4 **** **** 0
247 CCL4 1232 GROUP 4 **** **** 0
248 CCL4 1237 GROUP 4 **** **** 0
249 CCL4 1242 GROUP 4 **** **** 0
250 CCL4 1247 GROUP 4 **** **** 0
251 CCL4 1252 GROUP 4 **** **** 0
252 CCL4 1257 GROUP 4 **** **** 0
253 CCL4 1262 GROUP 4 **** **** 0
254 CCL4 1267 GROUP 4 **** **** 0
255 CCL4 1272 GROUP 4 **** **** 0
256 CCL4 1277 GROUP 4 **** **** 0
257 CCL4 1282 GROUP 4 **** **** 0
258 CCL4 1287 GROUP 4 **** **** 0
259 CCL4 1292 GROUP 4 **** **** 0
260 CCL4 1297 GROUP 4 **** **** 0
261 CCL4 1302 GROUP 4 **** **** 0
262 CCL4 1307 GROUP 4 **** **** 0
263 CCL4 1312 GROUP 4 **** **** 0
264 CCL4 1317 GROUP 4 **** **** 0
265 CCL4 1322 GROUP 4 **** **** 0
266 CCL4 1327 GROUP 4 **** **** 0
267 CCL4 1332 GROUP 4 **** **** 0
268 CCL4 1337 GROUP 4 **** **** 0
269 CCL4 1342 GROUP 4 **** **** 0
270 CCL4 1347 GROUP 4 **** **** 0
271 CCL4 1352 GROUP 4 **** **** 0
272 CCL4 1357 GROUP 4 **** **** 0
273 CCL4 1362 GROUP 4 **** **** 0
274 CCL4 1367 GROUP 4 **** **** 0
275 CCL4 1372 GROUP 4 **** **** 0
276 CCL4 1377 GROUP 4 **** **** 0
277 CCL4 1382 GROUP 4 **** **** 0
278 CCL4 1387 GROUP 4 **** **** 0
279 CCL4 1392 GROUP 4 **** **** 0
280 CCL4 1397 GROUP 4 **** **** 0
281 CCL4 1402 GROUP 4 **** **** 0
282 CCL4 1407 GROUP 4 **** **** 0
283 CCL4 1412 GROUP 4 **** **** 0
284 CCL4 1417 GROUP 4 **** **** 0
285 CCL4 1422 GROUP 4 **** **** 0
286 CCL4 1427 GROUP 4 **** **** 0
287 CCL4 1432 GROUP 4 **** **** 0
288 CCL4 1437 GROUP 4 **** **** 0
289 CCL4 1442 GROUP 4 **** **** 0
290 CCL4 1447 GROUP 4 **** **** 0
291 CCL4 1452 GROUP 4 **** **** 0
292 CCL4 1457 GROUP 4 **** **** 0
293 CCL4 1462 GROUP 4 **** **** 0
294 CCL4 1467 GROUP 4 **** **** 0
295 CCL4 1472 GROUP 4 **** **** 0
296 CCL4 1477 GROUP 4 **** **** 0
297 CCL4 1482 GROUP 4 **** **** 0
298 CCL4 1487 GROUP 4 **** **** 0
299 CCL4 1492 GROUP 4 **** **** 0
300 CCL4 1497 GROUP 4 **** **** 0
301 CCL4 1502 GROUP 4 **** **** 0
302 CCL4 1507 GROUP 4 **** **** 0
303 CCL4 1512 GROUP 4 **** **** 0
304 CCL4 1517 GROUP 4 **** **** 0
305 CCL4 1522 GROUP 4 **** **** 0
306 CCL4 1527 GROUP 4 **** **** 0
307 CCL4 1532 GROUP 4 **** **** 0
308 CCL4 1537 GROUP 4 **** **** 0
309 CCL4 1542 GROUP 4 **** **** 0
310 CCL4 1547 GROUP 4 **** **** 0
311 CCL4 1552 GROUP 4 **** **** 0
312 CCL4 1557 GROUP 4 **** **** 0
313 CCL4 1562 GROUP 4 **** **** 0
314 CCL4 1567 GROUP 4 **** **** 0
315 CCL4 1572 GROUP 4 **** **** 0
316 CCL4 1577 GROUP 4 **** **** 0
317 CCL4 1582 GROUP 4 **** **** 0
318 CCL4 1587 GROUP 4 **** **** 0
319 CCL4 1592 GROUP 4 **** **** 0
320 CCL4 1597 GROUP 4 **** **** 0
321 CCL4 1602 GROUP 4 **** **** 0
322 CCL4 1607 GROUP 4 **** **** 0
323 CCL4 1612 GROUP 4 **** **** 0
324 CCL4 1617 GROUP 4 **** **** 0
325 CCL4 1622 GROUP 4 **** **** 0
326 CCL4 1627 GROUP 4 **** **** 0
327 CCL4 1632 GROUP 4 **** **** 0
328 CCL4 1637 GROUP 4 **** **** 0
329 CCL4 1642 GROUP 4 **** **** 0
330 CCL4 1647 GROUP 4 **** **** 0
331 CCL4 1652 GROUP 4 **** **** 0
332 CCL4 1657 GROUP 4 **** **** 0
333 CCL4 1662 GROUP 4 **** **** 0
334 CCL4 1667 GROUP 4 **** **** 0
335 CCL4 1672 GROUP 4 **** **** 0
336 CCL4 1677 GROUP 4 **** **** 0
337 CCL4 1682 GROUP 4 **** **** 0
338 CCL4 1687 GROUP 4 **** **** 0
339 CCL4 1692 GROUP 4 **** **** 0
340 CCL4 1697 GROUP 4 **** **** 0
341 CCL4 1702 GROUP 4 **** **** 0
342 CCL4 1707 GROUP 4 **** **** 0
343 CCL4 1712 GROUP 4 **** **** 0
344 CCL4 1717 GROUP 4 **** **** 0
345 CCL4 1722 GROUP 4 **** **** 0
346 CCL4 1727 GROUP 4 **** **** 0
347 CCL4 1732 GROUP 4 **** **** 0
348 CCL4 1737 GROUP 4 **** **** 0
349 CCL4 1742 GROUP 4 **** **** 0
350 CCL4 1747 GROUP 4 **** **** 0
351 CCL4 1752 GROUP 4 **** **** 0
352 CCL4 1757 GROUP 4 **** **** 0
353 CCL4 1762 GROUP 4 **** **** 0
354 CCL4 1767 GROUP 4 **** **** 0
355 CCL4 1772 GROUP 4 **** **** 0
356 CCL4 1777 GROUP 4 **** **** 0
357 CCL4 1782 GROUP 4 **** **** 0
358 CCL4 1787 GROUP 4 **** **** 0
359 CCL4 1792 GROUP 4 **** **** 0
360 CCL4 1797 GROUP 4 **** **** 0
361 CCL4 1802 GROUP 4 **** **** 0
362 CCL4 1807 GROUP 4 **** **** 0
363 CCL4 1812 GROUP 4 **** **** 0
364 CCL4 1817 GROUP 4 **** **** 0
365 CCL4 1822 GROUP 4 **** **** 0
366 CCL4 1827 GROUP 4 **** **** 0
367 CCL4 1832 GROUP 4 **** **** 0
368 CCL4 1837 GROUP 4 **** **** 0
369 CCL4 1842 GROUP 4 **** **** 0
370 CCL4 1847 GROUP 4 **** **** 0
371 CCL4 1852 GROUP 4 **** **** 0
372 CCL4 1857 GROUP 4 **** **** 0
373 CCL4 1862 GROUP 4 **** **** 0
374 CCL4 1867 GROUP 4 **** **** 0
375 CCL4 1872 GROUP 4 **** **** 0
376 CCL4 1877 GROUP 4 **** **** 0
377 CCL4 1882 GROUP 4 **** **** 0
378 CCL4 1887 GROUP 4 **** **** 0
379 CCL4 1892 GROUP 4 **** **** 0
380 CCL4 1897 GROUP 4 **** **** 0
381 CCL4 1902 GROUP 4 **** **** 0
382 CCL4 1907 GROUP 4 **** **** 0
383 CCL4 1912 GROUP 4 **** **** 0
384 CCL4 1917 GROUP 4 **** **** 0
385 CCL4 1922 GROUP 4 **** **** 0
386 CCL4 1927 GROUP 4 **** **** 0
387 CCL4 1932 GROUP 4 **** **** 0
388 CCL4 1937 GROUP 4 **** **** 0
389 CCL4 1942 GROUP 4 **** **** 0
390 CCL4 1947 GROUP 4 **** **** 0
391 CCL4 1952 GROUP 4 **** **** 0
392 CCL4 1957 GROUP 4 **** **** 0
393 CCL4 1962 GROUP 4 **** **** 0
394 CCL4 1967 GROUP 4 **** **** 0
395 CCL4 1972 GROUP 4 **** **** 0
396 CCL4 1977 GROUP 4 **** **** 0
397 CCL4 1982 GROUP 4 **** **** 0
398 CCL4 1987 GROUP 4 **** **** 0
399 CCL4 1992 GROUP 4 **** **** 0
400 CCL4 1997 GROUP 4 **** **** 0
401 CCL4 2002 GROUP 4 **** **** 0
402 CCL4 2007 GROUP 4 **** **** 0
403 CCL4 2012 GROUP 4 **** **** 0
404 CCL4 2017 GROUP 4 **** **** 0
405 CCL4 2022 GROUP 4 **** **** 0
406 CCL4 2027 GROUP 4 **** **** 0
407 CCL4 2032 GROUP 4 **** **** 0
408 CCL4 2037 GROUP 4 **** **** 0
409 CCL4 2042 GROUP 4 **** **** 0
410 CCL4 2047 GROUP 4 **** **** 0
411 CCL4 2052 GROUP 4 **** **** 0
412 CCL4 2057 GROUP 4 **** **** 0
413 CCL4 2062 GROUP 4 **** **** 0
414 CCL4 2067 GROUP 4 **** **** 0
415 CCL4 2072 GROUP 4 **** **** 0
416 CCL4 2077 GROUP 4 **** **** 0
417 CCL4 2082 GROUP 4 **** **** 0
418 CCL4 2087 GROUP 4 **** **** 0
419 CCL4 2092 GROUP 4 **** **** 0
420 CCL4 2097 GROUP 4 **** **** 0
421 CCL4 2102 GROUP 4 **** **** 0
422 CCL4 2107 GROUP 4 **** **** 0
423 CCL4 2112 GROUP 4 **** **** 0
424 CCL4 2117 GROUP 4 **** **** 0
425 CCL4 2122 GROUP 4 **** **** 0
426 CCL4 2127 GROUP 4 **** **** 0
427 CCL4 2132 GROUP 4 **** **** 0
428 CCL4 2137 GROUP 4 **** **** 0
429 CCL4 2142 GROUP 4 **** **** 0
430 CCL4 2147 GROUP 4 **** **** 0
431 CCL4 2152 GROUP 4 **** **** 0
432 CCL4 2157 GROUP 4 **** **** 0
433 CCL4 2162 GROUP 4 **** **** 0
434 CCL4 2167 GROUP 4 **** **** 0
435 CCL4 2172 GROUP 4 **** **** 0
436 CCL4 2177 GROUP 4 **** **** 0
437 CCL4 2182 GROUP 4 **** **** 0
438 CCL4 2187 GROUP 4 **** **** 0
439 CCL4 2192 GROUP 4 **** **** 0
440 CCL4 2197 GROUP 4 **** **** 0
441 CCL4 2202 GROUP 4 **** **** 0
442 CCL4 2207 GROUP 4 **** **** 0
443 CCL4 2212 GROUP 4 **** **** 0
444 CCL4 2217 GROUP 4 **** **** 0
445 CCL4 2222 GROUP 4 **** **** 0
446 CCL4 2227 GROUP 4 **** **** 0
447 CCL4 2232 GROUP 4 **** **** 0
448 CCL4 2237 GROUP 4 **** **** 0
449 CCL4 2242 GROUP 4 **** **** 0
450 CCL4 2247 GROUP 4 **** **** 0
451 CCL4 2252 GROUP 4 **** **** 0
452 CCL4 2257 GROUP 4 **** **** 0
453 CCL4 2262 GROUP 4 **** **** 0
454 CCL4 2267 GROUP 4 **** **** 0
455 CCL4 2272 GROUP 4 **** **** 0
456 CCL4 2277 GROUP 4 **** **** 0
457 CCL4 2282 GROUP 4 **** **** 0
458 CCL4 2287 GROUP 4 **** **** 0
459 CCL4 2292 GROUP 4 **** **** 0
460 CCL4 2297 GROUP 4 **** **** 0
461 CCL4 2302 GROUP 4 **** **** 0
462 CCL4 2307 GROUP 4 **** **** 0
463 CCL4 2312 GROUP 4 **** **** 0
464 CCL4 2317 GROUP 4 **** **** 0
465 CCL4 2322 GROUP 4 **** **** 0
466 CCL4 2327 GROUP 4 **** **** 0
467 CCL4 2332 GROUP 4 **** **** 0
468 CCL4 2337 GROUP 4 **** **** 0
469 CCL4 2342 GROUP 4 **** **** 0
470 CCL4 2347 GROUP 4 **** **** 0
471 CCL4 2352 GROUP 4 **** **** 0
472 CCL4 2357 GROUP 4 **** **** 0
473 CCL4 2362 GROUP 4 **** **** 0
474 CCL4 2367 GROUP 4 **** **** 0
475 CCL4 2372 GROUP 4 **** **** 0
476 CCL4 2377 GROUP 4 **** **** 0
477 CCL4 2382 GROUP 4 **** **** 0
478 CCL4 2387 GROUP 4 **** **** 0
479 CCL4 2392 GROUP 4 **** **** 0
480 CCL4 2397 GROUP 4 **** **** 0
481 CCL4 2402 GROUP 4 **** **** 0
482 CCL4 2407 GROUP 4 **** **** 0
483 CCL4 2412 GROUP 4 **** **** 0
484 CCL4 2417 GROUP 4 **** **** 0
485 CCL4 2422 GROUP 4 **** **** 0
486 CCL4 2427 GROUP 4 **** **** 0
487 CCL4 2432 GROUP 4 **** **** 0
488 CCL4 2437 GROUP 4 **** **** 0
489 CCL4 2442 GROUP 4 **** **** 0
490 CCL4 2447 GROUP 4 **** **** 0
491 CCL4 2452 GROUP 4 **** **** 0
492 CCL4 2457 GROUP 4 **** **** 0
493 CCL4 2462 GROUP 4 **** **** 0
494 CCL4 2467 GROUP 4 **** **** 0

# MOE 2020.09 (io_trps.svl 2020.11)
