@<TRIPOS>MOLECULE
C27H37NOS2
56 57 1 0 0 
SMALL
USER_CHARGES


@<TRIPOS>ATOM
  1 C        8.0783     0.4156     0.6538 C.ar  1 <1>  -0.1500 
  2 H        8.9316     0.9751     0.9431 H     1 <1>   0.1500 
  3 C        8.1732    -0.5137    -0.3779 C.ar  1 <1>  -0.1500 
  4 C        7.0553    -1.2475    -0.7585 C.ar  1 <1>  -0.1500 
  5 C        5.8225    -1.0584    -0.1178 C.ar  1 <1>   0.0862 
  6 C        4.6501    -1.8290    -0.5382 C.2   1 <1>   0.3976 
  7 O        4.8054    -2.9807    -0.9250 O.2   1 <1>  -0.5700 
  8 C        3.3019    -1.2622    -0.5084 C.ar  1 <1>   0.0862 
  9 C        3.0798     0.1082    -0.7360 C.ar  1 <1>  -0.1500 
 10 C        1.7947     0.6349    -0.6916 C.ar  1 <1>  -0.1500 
 11 C        0.7149    -0.2035    -0.4292 C.ar  1 <1>   0.0825 
 12 O       -0.5281     0.3724    -0.3971 O.3   1 <1>  -0.3625 
 13 C       -1.7637    -0.3367    -0.1675 C.3   1 <1>   0.1200 
 14 C       -2.9679     0.6007    -0.2621 C.3   1 <1>  -0.1600 
 15 C       -4.2825    -0.1561    -0.0232 C.3   1 <1>  -0.1600 
 16 C       -5.4806     0.7929    -0.1571 C.3   1 <1>  -0.1600 
 17 C       -6.7966     0.0386     0.0753 C.3   1 <1>  -0.1600 
 18 C       -7.9969     0.9785    -0.0992 C.3   1 <1>  -0.1600 
 19 C       -9.3117     0.2221     0.1323 C.3   1 <1>  -0.1600 
 20 C      -10.5152     1.1502    -0.0780 C.3   1 <1>  -0.1600 
 21 C      -11.8275     0.3891     0.1563 C.3   1 <1>  -0.1600 
 22 C      -13.0369     1.2990    -0.0700 C.3   1 <1>   0.0700 
 23 S      -14.5380     0.3304     0.2286 S.3   1 <1>  -0.4100 
 24 C        0.9077    -1.5704    -0.2153 C.ar  1 <1>  -0.1500 
 25 C        2.1953    -2.0917    -0.2593 C.ar  1 <1>  -0.1500 
 26 C        5.7467    -0.1284     0.9317 C.ar  1 <1>  -0.1500 
 27 C        6.8656     0.6056     1.3096 C.ar  1 <1>  -0.1500 
 28 H        9.0991    -0.6639    -0.8725 H     1 <1>   0.1500 
 29 H        7.1322    -1.9596    -1.5411 H     1 <1>   0.1500 
 30 H        3.8963     0.7489    -0.9519 H     1 <1>   0.1500 
 31 H        1.6257     1.6674    -0.8602 H     1 <1>   0.1500 
 32 H       -1.8615    -1.1224    -0.9181 H     1 <1>   0.0800 
 33 H       -1.7316    -0.7857     0.8264 H     1 <1>   0.0800 
 34 H       -2.8571     1.3915     0.4815 H     1 <1>   0.0800 
 35 H       -2.9790     1.0543    -1.2545 H     1 <1>   0.0800 
 36 H       -4.3768    -0.9600    -0.7562 H     1 <1>   0.0800 
 37 H       -4.2750    -0.5907     0.9786 H     1 <1>   0.0800 
 38 H       -5.3903     1.5981     0.5750 H     1 <1>   0.0800 
 39 H       -5.4856     1.2285    -1.1584 H     1 <1>   0.0800 
 40 H       -6.8751    -0.7817    -0.6411 H     1 <1>   0.0800 
 41 H       -6.8037    -0.3753     1.0857 H     1 <1>   0.0800 
 42 H       -7.9210     1.8009     0.6151 H     1 <1>   0.0800 
 43 H       -7.9890     1.3893    -1.1107 H     1 <1>   0.0800 
 44 H       -9.3753    -0.6150    -0.5660 H     1 <1>   0.0800 
 45 H       -9.3287    -0.1698     1.1513 H     1 <1>   0.0800 
 46 H      -10.4518     1.9887     0.6187 H     1 <1>   0.0800 
 47 H      -10.4978     1.5373    -1.0989 H     1 <1>   0.0800 
 48 H      -11.8880    -0.4575    -0.5302 H     1 <1>   0.0800 
 49 H      -11.8538     0.0110     1.1798 H     1 <1>   0.0800 
 50 H      -13.0014     2.1430     0.6207 H     1 <1>   0.0800 
 51 H      -13.0366     1.6671    -1.0969 H     1 <1>   0.0800 
 52 H      -15.4105     1.3089    -0.0320 H     1 <1>   0.1800 
 53 H        0.0873    -2.2100    -0.0229 H     1 <1>   0.1500 
 54 H        2.3496    -3.1299    -0.1038 H     1 <1>   0.1500 
 55 H        4.8321     0.0141     1.4486 H     1 <1>   0.1500 
 56 H        6.7974     1.3085     2.1011 H     1 <1>   0.1500 
@<TRIPOS>BOND
  1   1   2  1   
  2   1   3  ar  
  3   1  27  ar  
  4   3   4  ar  
  5   3  28  1   
  6   4   5  ar  
  7   4  29  1   
  8   5   6  1   
  9   5  26  ar  
 10   6   7  2   
 11   6   8  1   
 12   8   9  ar  
 13   8  25  ar  
 14   9  10  ar  
 15   9  30  1   
 16  10  11  ar  
 17  10  31  1   
 18  11  12  1   
 19  11  24  ar  
 20  12  13  1   
 21  13  14  1   
 22  13  32  1   
 23  13  33  1   
 24  14  15  1   
 25  14  34  1   
 26  14  35  1   
 27  15  16  1   
 28  15  36  1   
 29  15  37  1   
 30  16  17  1   
 31  16  38  1   
 32  16  39  1   
 33  17  18  1   
 34  17  40  1   
 35  17  41  1   
 36  18  19  1   
 37  18  42  1   
 38  18  43  1   
 39  19  20  1   
 40  19  44  1   
 41  19  45  1   
 42  20  21  1   
 43  20  46  1   
 44  20  47  1   
 45  21  22  1   
 46  21  48  1   
 47  21  49  1   
 48  22  23  1   
 49  22  50  1   
 50  22  51  1   
 51  23  52  1   
 52  24  25  ar  
 53  24  53  1   
 54  25  54  1   
 55  26  27  ar  
 56  26  55  1   
 57  27  56  1   
@<TRIPOS>SUBSTRUCTURE
  1 ****  13 GROUP 4 **** **** 0

# MOE 2020.09 (io_trps.svl 2020.11)
@<TRIPOS>MOLECULE
CCL4
2470 1976 494 0 0 
SMALL
USER_CHARGES


@<TRIPOS>ATOM
   1 CL     -27.4749   -13.8851   -20.4852 Cl      1 CCL4  -0.0812 
   2 C      -26.9735   -13.8853   -18.8647 C.3     1 CCL4   0.3246 
   3 CL     -27.3100   -15.3809   -18.0800 Cl      1 CCL4  -0.0812 
   4 CL     -27.5317   -12.5299   -17.9786 Cl      1 CCL4  -0.0812 
   5 CL     -25.1815   -13.7588   -18.8870 Cl      1 CCL4  -0.0812 
   6 CL     -18.3257    -6.0773   -18.1589 Cl      2 CCL4  -0.0812 
   7 C      -18.3710    -4.4572   -18.8412 C.3     2 CCL4   0.3246 
   8 CL     -18.1259    -3.1828   -17.4840 Cl      2 CCL4  -0.0812 
   9 CL     -19.9864    -4.0614   -19.4963 Cl      2 CCL4  -0.0812 
  10 CL     -17.2046    -4.0315   -20.0970 Cl      2 CCL4  -0.0812 
  11 CL      24.3629     0.0358   -19.5259 Cl      3 CCL4  -0.0812 
  12 C       22.5641    -0.3797   -19.5302 C.3     3 CCL4   0.3246 
  13 CL      22.3537    -2.0791   -20.1380 Cl      3 CCL4  -0.0812 
  14 CL      21.7210     0.7419   -20.5813 Cl      3 CCL4  -0.0812 
  15 CL      21.8931    -0.0968   -17.8656 Cl      3 CCL4  -0.0812 
  16 CL      22.4635   -17.0231    18.5967 Cl      4 CCL4  -0.0812 
  17 C       22.2160   -18.5938    19.3624 C.3     4 CCL4   0.3246 
  18 CL      20.8372   -18.5577    20.4459 Cl      4 CCL4  -0.0812 
  19 CL      23.6730   -19.0799    20.3076 Cl      4 CCL4  -0.0812 
  20 CL      21.9933   -19.8739    18.0834 Cl      4 CCL4  -0.0812 
  21 CL     -14.3689   -14.0497   -14.5211 Cl      5 CCL4  -0.0812 
  22 C      -14.6982   -15.6772   -15.1778 C.3     5 CCL4   0.3246 
  23 CL     -15.9491   -16.5161   -14.2914 Cl      5 CCL4  -0.0812 
  24 CL     -13.3058   -16.6801   -14.9440 Cl      5 CCL4  -0.0812 
  25 CL     -15.1110   -15.4285   -16.9285 Cl      5 CCL4  -0.0812 
  26 CL     -14.0840    17.9300   -14.7223 Cl      6 CCL4  -0.0812 
  27 C      -15.5495    18.8059   -15.2470 C.3     6 CCL4   0.3246 
  28 CL     -14.9845    20.0496   -16.3998 Cl      6 CCL4  -0.0812 
  29 CL     -16.4417    19.5547   -13.9483 Cl      6 CCL4  -0.0812 
  30 CL     -16.6509    17.7196   -16.2323 Cl      6 CCL4  -0.0812 
  31 CL     -16.1588   -14.8535    -9.7254 Cl      7 CCL4  -0.0812 
  32 C      -16.9154   -16.4214    -9.2454 C.3     7 CCL4   0.3246 
  33 CL     -17.0235   -17.4749   -10.7008 Cl      7 CCL4  -0.0812 
  34 CL     -18.5954   -16.0789    -8.6111 Cl      7 CCL4  -0.0812 
  35 CL     -15.9691   -17.3259    -7.9476 Cl      7 CCL4  -0.0812 
  36 CL     -16.5568   -20.4248    20.1677 Cl      8 CCL4  -0.0812 
  37 C      -16.0127   -18.9157    19.4398 C.3     8 CCL4   0.3246 
  38 CL     -14.7417   -18.1350    20.4834 Cl      8 CCL4  -0.0812 
  39 CL     -17.3248   -17.6731    19.3447 Cl      8 CCL4  -0.0812 
  40 CL     -15.3445   -19.0266    17.8724 Cl      8 CCL4  -0.0812 
  41 CL     -28.0224   -14.7061    -4.9643 Cl      9 CCL4  -0.0812 
  42 C      -27.2783   -15.4048    -3.6106 C.3     9 CCL4   0.3246 
  43 CL     -28.3016   -15.3715    -2.1609 Cl      9 CCL4  -0.0812 
  44 CL     -25.9034   -14.3848    -3.1042 Cl      9 CCL4  -0.0812 
  45 CL     -26.7291   -17.0341    -3.9419 Cl      9 CCL4  -0.0812 
  46 CL     -13.8433    19.4443    -8.7163 Cl     10 CCL4  -0.0812 
  47 C      -14.8060    18.0657    -9.4363 C.3    10 CCL4   0.3246 
  48 CL     -13.9630    17.4221   -10.8902 Cl     10 CCL4  -0.0812 
  49 CL     -16.3739    18.6973    -9.9152 Cl     10 CCL4  -0.0812 
  50 CL     -15.1272    16.6824    -8.2746 Cl     10 CCL4  -0.0812 
  51 CL      21.4833   -16.4445   -10.8910 Cl     11 CCL4  -0.0812 
  52 C       22.3842   -15.3718    -9.8172 C.3    11 CCL4   0.3246 
  53 CL      23.5441   -14.2844   -10.6257 Cl     11 CCL4  -0.0812 
  54 CL      23.3562   -16.4564    -8.5693 Cl     11 CCL4  -0.0812 
  55 CL      21.2782   -14.4063    -8.8376 Cl     11 CCL4  -0.0812 
  56 CL     -25.2938    19.0291   -12.5096 Cl     12 CCL4  -0.0812 
  57 C      -26.8322    19.4535   -11.9210 C.3    12 CCL4   0.3246 
  58 CL     -27.9140    19.7724   -13.3636 Cl     12 CCL4  -0.0812 
  59 CL     -26.7425    20.9035   -10.9834 Cl     12 CCL4  -0.0812 
  60 CL     -27.5670    18.1706   -10.9937 Cl     12 CCL4  -0.0812 
  61 CL     -23.9177   -12.0321    -8.2405 Cl     13 CCL4  -0.0812 
  62 C      -23.3204   -13.2345    -7.1339 C.3    13 CCL4   0.3246 
  63 CL     -24.0785   -14.8041    -7.5381 Cl     13 CCL4  -0.0812 
  64 CL     -23.7821   -12.8273    -5.4313 Cl     13 CCL4  -0.0812 
  65 CL     -21.5567   -13.4443    -7.1469 Cl     13 CCL4  -0.0812 
  66 CL     -17.8278   -12.1873    -5.8347 Cl     14 CCL4  -0.0812 
  67 C      -16.4786   -12.9931    -4.9347 C.3    14 CCL4   0.3246 
  68 CL     -14.8809   -12.6026    -5.7574 Cl     14 CCL4  -0.0812 
  69 CL     -16.7298   -14.7516    -4.9975 Cl     14 CCL4  -0.0812 
  70 CL     -16.4723   -12.3071    -3.2699 Cl     14 CCL4  -0.0812 
  71 CL     -15.3232    -3.7273    -8.9631 Cl     15 CCL4  -0.0812 
  72 C      -14.8772    -2.8806   -10.4533 C.3    15 CCL4   0.3246 
  73 CL     -14.2007    -1.2873    -9.9606 Cl     15 CCL4  -0.0812 
  74 CL     -16.4725    -2.6237   -11.2031 Cl     15 CCL4  -0.0812 
  75 CL     -13.8056    -3.7250   -11.6124 Cl     15 CCL4  -0.0812 
  76 CL     -14.8336    -9.1283    -4.0514 Cl     16 CCL4  -0.0812 
  77 C      -14.9158    -8.3667    -2.4973 C.3    16 CCL4   0.3246 
  78 CL     -15.7355    -9.4292    -1.2944 Cl     16 CCL4  -0.0812 
  79 CL     -15.7995    -6.8844    -2.6332 Cl     16 CCL4  -0.0812 
  80 CL     -13.2511    -8.0793    -1.9015 Cl     16 CCL4  -0.0812 
  81 CL     -16.5889   -12.2718   -11.8103 Cl     17 CCL4  -0.0812 
  82 C      -17.5511   -11.4808   -10.5487 C.3    17 CCL4   0.3246 
  83 CL     -16.5197   -10.8653    -9.2465 Cl     17 CCL4  -0.0812 
  84 CL     -18.7665   -12.4626    -9.8111 Cl     17 CCL4  -0.0812 
  85 CL     -18.2608    -9.8801   -11.3059 Cl     17 CCL4  -0.0812 
  86 CL     -15.8190    -6.7509   -13.1302 Cl     18 CCL4  -0.0812 
  87 C      -16.6324    -6.1268   -14.4861 C.3    18 CCL4   0.3246 
  88 CL     -18.2128    -6.9465   -14.5922 Cl     18 CCL4  -0.0812 
  89 CL     -15.9039    -6.4445   -15.9870 Cl     18 CCL4  -0.0812 
  90 CL     -16.8514    -4.4274   -14.1895 Cl     18 CCL4  -0.0812 
  91 CL      23.9929    -5.7253    -5.8263 Cl     19 CCL4  -0.0812 
  92 C       22.4081    -5.7350    -5.0251 C.3    19 CCL4   0.3246 
  93 CL      22.2712    -6.9445    -3.7085 Cl     19 CCL4  -0.0812 
  94 CL      21.0617    -5.9713    -6.2639 Cl     19 CCL4  -0.0812 
  95 CL      22.0497    -4.0521    -4.4717 Cl     19 CCL4  -0.0812 
  96 CL      21.3371    -7.9232    -9.7774 Cl     20 CCL4  -0.0812 
  97 C       21.9948    -9.1364   -10.9024 C.3    20 CCL4   0.3246 
  98 CL      20.8524    -9.5485   -12.1520 Cl     20 CCL4  -0.0812 
  99 CL      22.4891   -10.5515   -10.0691 Cl     20 CCL4  -0.0812 
 100 CL      23.3345    -8.4260   -11.7818 Cl     20 CCL4  -0.0812 
 101 CL     -24.8499    -6.0559   -11.3082 Cl     21 CCL4  -0.0812 
 102 C      -25.3451    -6.2591    -9.5038 C.3    21 CCL4   0.3246 
 103 CL     -27.0225    -5.5606    -9.2088 Cl     21 CCL4  -0.0812 
 104 CL     -24.1186    -5.3136    -8.5206 Cl     21 CCL4  -0.0812 
 105 CL     -25.2501    -7.9618    -9.0238 Cl     21 CCL4  -0.0812 
 106 CL     -18.3037    -3.8691    -6.3769 Cl     22 CCL4  -0.0812 
 107 C      -17.3224    -4.6933    -5.1856 C.3    22 CCL4   0.3246 
 108 CL     -16.7381    -6.1984    -5.9162 Cl     22 CCL4  -0.0812 
 109 CL     -18.2627    -4.9937    -3.8349 Cl     22 CCL4  -0.0812 
 110 CL     -15.8655    -3.6508    -4.8189 Cl     22 CCL4  -0.0812 
 111 CL      23.0751    -0.1444    -8.7266 Cl     23 CCL4  -0.0812 
 112 C       23.1926    -1.9050    -8.8760 C.3    23 CCL4   0.3246 
 113 CL      24.8019    -2.4189    -8.4547 Cl     23 CCL4  -0.0812 
 114 CL      23.1120    -2.3576   -10.6082 Cl     23 CCL4  -0.0812 
 115 CL      22.0332    -2.6827    -7.8278 Cl     23 CCL4  -0.0812 
 116 CL      22.9383   -11.2378    -4.1533 Cl     24 CCL4  -0.0812 
 117 C       22.3044   -11.1052    -5.8122 C.3    24 CCL4   0.3246 
 118 CL      23.3138   -11.9186    -6.9988 Cl     24 CCL4  -0.0812 
 119 CL      22.0936    -9.3081    -6.2671 Cl     24 CCL4  -0.0812 
 120 CL      20.7433   -11.8559    -5.9126 Cl     24 CCL4  -0.0812 
 121 CL     -21.3122    -5.7110   -10.5518 Cl     25 CCL4  -0.0812 
 122 C      -19.6783    -5.3207    -9.9679 C.3    25 CCL4   0.3246 
 123 CL     -19.5619    -3.5486    -9.6605 Cl     25 CCL4  -0.0812 
 124 CL     -18.4557    -5.8318   -11.1847 Cl     25 CCL4  -0.0812 
 125 CL     -19.3905    -6.0511    -8.3840 Cl     25 CCL4  -0.0812 
 126 CL     -24.5738    -8.7355    -4.5749 Cl     26 CCL4  -0.0812 
 127 C      -24.4625    -8.9184    -2.8362 C.3    26 CCL4   0.3246 
 128 CL     -22.7814    -8.2382    -2.4033 Cl     26 CCL4  -0.0812 
 129 CL     -24.5701   -10.6743    -2.4441 Cl     26 CCL4  -0.0812 
 130 CL     -25.6565    -7.9828    -1.9565 Cl     26 CCL4  -0.0812 
 131 CL     -22.3006   -10.6207   -19.1449 Cl     27 CCL4  -0.0812 
 132 C      -21.7696    -9.2733   -18.1647 C.3    27 CCL4   0.3246 
 133 CL     -22.0165    -7.7063   -19.0625 Cl     27 CCL4  -0.0812 
 134 CL     -20.0173    -9.5041   -17.9062 Cl     27 CCL4  -0.0812 
 135 CL     -22.7039    -9.2213   -16.5914 Cl     27 CCL4  -0.0812 
 136 CL     -24.1344   -16.4274   -16.2506 Cl     28 CCL4  -0.0812 
 137 C      -24.6845   -17.7993   -15.2928 C.3    28 CCL4   0.3246 
 138 CL     -25.6710   -17.2475   -13.9275 Cl     28 CCL4  -0.0812 
 139 CL     -23.2547   -18.5991   -14.6912 Cl     28 CCL4  -0.0812 
 140 CL     -25.7213   -18.8681   -16.3601 Cl     28 CCL4  -0.0812 
 141 CL     -19.0417   -15.3600    -0.9294 Cl     29 CCL4  -0.0812 
 142 C      -18.2435   -16.6594    -0.0134 C.3    29 CCL4   0.3246 
 143 CL     -19.6193   -17.4953     0.7097 Cl     29 CCL4  -0.0812 
 144 CL     -17.2241   -15.8777     1.1354 Cl     29 CCL4  -0.0812 
 145 CL     -17.4182   -17.7245    -1.0606 Cl     29 CCL4  -0.0812 
 146 CL     -19.2932   -14.3374    19.9471 Cl     30 CCL4  -0.0812 
 147 C      -17.8214   -13.3794    19.8427 C.3    30 CCL4   0.3246 
 148 CL     -16.3409   -14.3952    19.9774 Cl     30 CCL4  -0.0812 
 149 CL     -17.7355   -12.0927    21.0265 Cl     30 CCL4  -0.0812 
 150 CL     -17.7008   -12.5490    18.2424 Cl     30 CCL4  -0.0812 
 151 CL     -20.2941   -19.6546   -16.2983 Cl     31 CCL4  -0.0812 
 152 C      -19.5709   -18.0719   -16.2606 C.3    31 CCL4   0.3246 
 153 CL     -19.2385   -17.7054   -14.4729 Cl     31 CCL4  -0.0812 
 154 CL     -20.7085   -16.8067   -16.7852 Cl     31 CCL4  -0.0812 
 155 CL     -18.0866   -17.8772   -17.1897 Cl     31 CCL4  -0.0812 
 156 CL     -18.6679   -10.8711   -14.9865 Cl     32 CCL4  -0.0812 
 157 C      -19.2061   -12.6320   -15.0713 C.3    32 CCL4   0.3246 
 158 CL     -20.6588   -12.6303   -16.1401 Cl     32 CCL4  -0.0812 
 159 CL     -19.5102   -13.2279   -13.4477 Cl     32 CCL4  -0.0812 
 160 CL     -17.8469   -13.6205   -15.6744 Cl     32 CCL4  -0.0812 
 161 CL     -23.3351   -16.9876   -20.0765 Cl     33 CCL4  -0.0812 
 162 C      -22.4675   -18.4723   -20.0214 C.3    33 CCL4   0.3246 
 163 CL     -22.9866   -19.7104   -21.2340 Cl     33 CCL4  -0.0812 
 164 CL     -22.8226   -19.2781   -18.3372 Cl     33 CCL4  -0.0812 
 165 CL     -20.6721   -18.3159   -20.0642 Cl     33 CCL4  -0.0812 
 166 CL     -22.9549    -4.4221   -14.4041 Cl     34 CCL4  -0.0812 
 167 C      -21.3151    -3.9809   -14.9037 C.3    34 CCL4   0.3246 
 168 CL     -20.3789    -3.6178   -13.5284 Cl     34 CCL4  -0.0812 
 169 CL     -21.3915    -2.4561   -15.7974 Cl     34 CCL4  -0.0812 
 170 CL     -20.7068    -5.3199   -15.8623 Cl     34 CCL4  -0.0812 
 171 CL     -25.5663    -4.4530   -20.3947 Cl     35 CCL4  -0.0812 
 172 C      -23.8819    -4.2013   -19.9257 C.3    35 CCL4   0.3246 
 173 CL     -23.5822    -4.8218   -18.3079 Cl     35 CCL4  -0.0812 
 174 CL     -23.7526    -2.3773   -19.9176 Cl     35 CCL4  -0.0812 
 175 CL     -22.8847    -5.0134   -21.2531 Cl     35 CCL4  -0.0812 
 176 CL     -20.9029   -16.8928   -10.8523 Cl     36 CCL4  -0.0812 
 177 C      -22.1612   -15.8020   -11.4990 C.3    36 CCL4   0.3246 
 178 CL     -23.8675   -16.5059   -10.9708 Cl     36 CCL4  -0.0812 
 179 CL     -22.1408   -15.7302   -13.2705 Cl     36 CCL4  -0.0812 
 180 CL     -22.2325   -14.1965   -10.7146 Cl     36 CCL4  -0.0812 
 181 CL     -24.8890   -12.6793   -12.4344 Cl     37 CCL4  -0.0812 
 182 C      -25.5668   -12.3297   -13.9977 C.3    37 CCL4   0.3246 
 183 CL     -26.3852   -13.8271   -14.4292 Cl     37 CCL4  -0.0812 
 184 CL     -24.4325   -11.9183   -15.3309 Cl     37 CCL4  -0.0812 
 185 CL     -26.8069   -11.0466   -13.9700 Cl     37 CCL4  -0.0812 
 186 CL     -22.5375    20.1500    -9.9599 Cl     38 CCL4  -0.0812 
 187 C      -21.0585    19.4664   -10.6494 C.3    38 CCL4   0.3246 
 188 CL     -20.8439    20.2291   -12.2884 Cl     38 CCL4  -0.0812 
 189 CL     -21.1630    17.7148   -10.7606 Cl     38 CCL4  -0.0812 
 190 CL     -19.6467    19.8541    -9.6645 Cl     38 CCL4  -0.0812 
 191 CL     -21.0479   -10.9765    -1.1332 Cl     39 CCL4  -0.0812 
 192 C      -19.4503   -11.3450    -1.8116 C.3    39 CCL4   0.3246 
 193 CL     -18.8024    -9.8473    -2.6667 Cl     39 CCL4  -0.0812 
 194 CL     -19.6380   -12.6656    -2.9425 Cl     39 CCL4  -0.0812 
 195 CL     -18.2978   -11.8371    -0.4622 Cl     39 CCL4  -0.0812 
 196 CL     -24.3188     0.3916   -11.1529 Cl     40 CCL4  -0.0812 
 197 C      -23.0486    -0.8537   -11.3036 C.3    40 CCL4   0.3246 
 198 CL     -22.0668    -0.8587    -9.8055 Cl     40 CCL4  -0.0812 
 199 CL     -22.1943    -0.4682   -12.8810 Cl     40 CCL4  -0.0812 
 200 CL     -23.7650    -2.4895   -11.3941 Cl     40 CCL4  -0.0812 
 201 CL     -24.4563    -2.8923    -4.9894 Cl     41 CCL4  -0.0812 
 202 C      -22.7938    -3.4893    -5.1563 C.3    41 CCL4   0.3246 
 203 CL     -22.2125    -2.8318    -6.7390 Cl     41 CCL4  -0.0812 
 204 CL     -22.6675    -5.2182    -4.9979 Cl     41 CCL4  -0.0812 
 205 CL     -21.8376    -2.7268    -3.7992 Cl     41 CCL4  -0.0812 
 206 CL     -20.7077   -18.0105    -2.7255 Cl     42 CCL4  -0.0812 
 207 C      -21.7376   -17.2351    -3.9805 C.3    42 CCL4   0.3246 
 208 CL     -22.7879   -18.4658    -4.6803 Cl     42 CCL4  -0.0812 
 209 CL     -20.7830   -16.4324    -5.2293 Cl     42 CCL4  -0.0812 
 210 CL     -22.7684   -16.0384    -3.0267 Cl     42 CCL4  -0.0812 
 211 CL     -18.0107    21.5036    -4.6247 Cl     43 CCL4  -0.0812 
 212 C      -18.0162    19.8566    -5.0478 C.3    43 CCL4   0.3246 
 213 CL     -17.5521    18.9343    -3.5494 Cl     43 CCL4  -0.0812 
 214 CL     -16.8622    19.4835    -6.2559 Cl     43 CCL4  -0.0812 
 215 CL     -19.6167    19.3619    -5.4611 Cl     43 CCL4  -0.0812 
 216 CL     -19.1653    -9.2683    -7.2730 Cl     44 CCL4  -0.0812 
 217 C      -20.5122    -8.9260    -6.2413 C.3    44 CCL4   0.3246 
 218 CL     -21.8428    -8.2148    -7.1678 Cl     44 CCL4  -0.0812 
 219 CL     -20.0067    -7.4909    -5.3068 Cl     44 CCL4  -0.0812 
 220 CL     -21.2020   -10.2661    -5.2086 Cl     44 CCL4  -0.0812 
 221 CL     -24.4784    -5.1309     0.2456 Cl     45 CCL4  -0.0812 
 222 C      -25.5074    -3.8746    -0.3487 C.3    45 CCL4   0.3246 
 223 CL     -24.4608    -2.8555    -1.3680 Cl     45 CCL4  -0.0812 
 224 CL     -26.3247    -3.0225     1.0660 Cl     45 CCL4  -0.0812 
 225 CL     -26.8622    -4.5550    -1.3334 Cl     45 CCL4  -0.0812 
 226 CL     -25.9104   -10.9931    19.1137 Cl     46 CCL4  -0.0812 
 227 C      -26.3357    -9.1953    18.7424 C.3    46 CCL4   0.3246 
 228 CL     -25.4259    -8.0786    19.7534 Cl     46 CCL4  -0.0812 
 229 CL     -28.0701    -8.9745    19.1611 Cl     46 CCL4  -0.0812 
 230 CL     -25.9394    -8.8403    17.0773 Cl     46 CCL4  -0.0812 
 231 CL     -21.2885    -8.1844   -12.9381 Cl     47 CCL4  -0.0812 
 232 C      -22.3061    -9.4464   -12.1465 C.3    47 CCL4   0.3246 
 233 CL     -21.9562    -9.5413   -10.3888 Cl     47 CCL4  -0.0812 
 234 CL     -21.9905   -11.0468   -12.8301 Cl     47 CCL4  -0.0812 
 235 CL     -24.0700    -9.1442   -12.4835 Cl     47 CCL4  -0.0812 
 236 CL     -27.0186    -6.2359   -17.5559 Cl     48 CCL4  -0.0812 
 237 C      -26.5863    -7.5016   -16.4132 C.3    48 CCL4   0.3246 
 238 CL     -27.8881    -7.4735   -15.2709 Cl     48 CCL4  -0.0812 
 239 CL     -25.0147    -7.1391   -15.5167 Cl     48 CCL4  -0.0812 
 240 CL     -26.3271    -9.0184   -17.1883 Cl     48 CCL4  -0.0812 
 241 CL     -26.7172    -2.8153   -16.3668 Cl     49 CCL4  -0.0812 
 242 C      -27.0921    -2.6083   -14.6844 C.3    49 CCL4   0.3246 
 243 CL     -26.1485    -1.1844   -14.1704 Cl     49 CCL4  -0.0812 
 244 CL     -26.5849    -4.0426   -13.8090 Cl     49 CCL4  -0.0812 
 245 CL     -28.7723    -2.3044   -14.3067 Cl     49 CCL4  -0.0812 
 246 CL     -27.4749   -13.8851     4.5148 Cl     50 CCL4  -0.0812 
 247 C      -26.9735   -13.8853     6.1353 C.3    50 CCL4   0.3246 
 248 CL     -27.3100   -15.3809     6.9200 Cl     50 CCL4  -0.0812 
 249 CL     -27.5317   -12.5299     7.0214 Cl     50 CCL4  -0.0812 
 250 CL     -25.1815   -13.7588     6.1130 Cl     50 CCL4  -0.0812 
 251 CL     -18.3257    -6.0773     6.8411 Cl     51 CCL4  -0.0812 
 252 C      -18.3710    -4.4572     6.1588 C.3    51 CCL4   0.3246 
 253 CL     -18.1259    -3.1828     7.5160 Cl     51 CCL4  -0.0812 
 254 CL     -19.9864    -4.0614     5.5037 Cl     51 CCL4  -0.0812 
 255 CL     -17.2046    -4.0315     4.9030 Cl     51 CCL4  -0.0812 
 256 CL      24.3629     0.0358     5.4741 Cl     52 CCL4  -0.0812 
 257 C       22.5641    -0.3797     5.4698 C.3    52 CCL4   0.3246 
 258 CL      22.3537    -2.0791     4.8620 Cl     52 CCL4  -0.0812 
 259 CL      21.7210     0.7419     4.4187 Cl     52 CCL4  -0.0812 
 260 CL      21.8931    -0.0968     7.1344 Cl     52 CCL4  -0.0812 
 261 CL     -25.4191   -16.2983    -0.1589 Cl     53 CCL4  -0.0812 
 262 C      -24.4184   -17.6244     0.5948 C.3    53 CCL4   0.3246 
 263 CL     -24.0012   -18.7030    -0.7489 Cl     53 CCL4  -0.0812 
 264 CL     -25.3546   -18.4211     1.8323 Cl     53 CCL4  -0.0812 
 265 CL     -22.9908   -16.8953     1.3382 Cl     53 CCL4  -0.0812 
 266 CL      22.4635   -17.0231     3.5967 Cl     54 CCL4  -0.0812 
 267 C       22.2160   -18.5938     4.3624 C.3    54 CCL4   0.3246 
 268 CL      20.8372   -18.5577     5.4459 Cl     54 CCL4  -0.0812 
 269 CL      23.6730   -19.0799     5.3076 Cl     54 CCL4  -0.0812 
 270 CL      21.9933   -19.8739     3.0834 Cl     54 CCL4  -0.0812 
 271 CL     -14.3689   -14.0497    10.4789 Cl     55 CCL4  -0.0812 
 272 C      -14.6982   -15.6772     9.8222 C.3    55 CCL4   0.3246 
 273 CL     -15.9491   -16.5161    10.7086 Cl     55 CCL4  -0.0812 
 274 CL     -13.3058   -16.6801    10.0560 Cl     55 CCL4  -0.0812 
 275 CL     -15.1110   -15.4285     8.0715 Cl     55 CCL4  -0.0812 
 276 CL     -14.0840    17.9300    10.2777 Cl     56 CCL4  -0.0812 
 277 C      -15.5495    18.8059     9.7530 C.3    56 CCL4   0.3246 
 278 CL     -14.9845    20.0496     8.6002 Cl     56 CCL4  -0.0812 
 279 CL     -16.4417    19.5547    11.0517 Cl     56 CCL4  -0.0812 
 280 CL     -16.6509    17.7196     8.7677 Cl     56 CCL4  -0.0812 
 281 CL     -16.5568   -20.4248     5.1677 Cl     57 CCL4  -0.0812 
 282 C      -16.0127   -18.9157     4.4398 C.3    57 CCL4   0.3246 
 283 CL     -14.7417   -18.1350     5.4834 Cl     57 CCL4  -0.0812 
 284 CL     -17.3248   -17.6731     4.3447 Cl     57 CCL4  -0.0812 
 285 CL     -15.3445   -19.0266     2.8724 Cl     57 CCL4  -0.0812 
 286 CL     -13.8433    19.4443    16.2837 Cl     58 CCL4  -0.0812 
 287 C      -14.8060    18.0657    15.5637 C.3    58 CCL4   0.3246 
 288 CL     -13.9630    17.4221    14.1098 Cl     58 CCL4  -0.0812 
 289 CL     -16.3739    18.6973    15.0848 Cl     58 CCL4  -0.0812 
 290 CL     -15.1272    16.6824    16.7254 Cl     58 CCL4  -0.0812 
 291 CL      21.4833   -16.4445    14.1090 Cl     59 CCL4  -0.0812 
 292 C       22.3842   -15.3718    15.1828 C.3    59 CCL4   0.3246 
 293 CL      23.5441   -14.2844    14.3743 Cl     59 CCL4  -0.0812 
 294 CL      23.3562   -16.4564    16.4307 Cl     59 CCL4  -0.0812 
 295 CL      21.2782   -14.4063    16.1624 Cl     59 CCL4  -0.0812 
 296 CL     -25.2938    19.0291    12.4904 Cl     60 CCL4  -0.0812 
 297 C      -26.8322    19.4535    13.0790 C.3    60 CCL4   0.3246 
 298 CL     -27.9140    19.7724    11.6364 Cl     60 CCL4  -0.0812 
 299 CL     -26.7425    20.9035    14.0166 Cl     60 CCL4  -0.0812 
 300 CL     -27.5670    18.1706    14.0063 Cl     60 CCL4  -0.0812 
 301 CL     -15.3232    -3.7273    16.0369 Cl     61 CCL4  -0.0812 
 302 C      -14.8772    -2.8806    14.5467 C.3    61 CCL4   0.3246 
 303 CL     -14.2007    -1.2873    15.0394 Cl     61 CCL4  -0.0812 
 304 CL     -16.4725    -2.6237    13.7969 Cl     61 CCL4  -0.0812 
 305 CL     -13.8056    -3.7250    13.3876 Cl     61 CCL4  -0.0812 
 306 CL     -20.2109    -9.4802     3.3294 Cl     62 CCL4  -0.0812 
 307 C      -20.2741    -8.0590     2.2557 C.3    62 CCL4   0.3246 
 308 CL     -19.2812    -8.2336     0.8146 Cl     62 CCL4  -0.0812 
 309 CL     -19.5860    -6.7239     3.3217 Cl     62 CCL4  -0.0812 
 310 CL     -21.8925    -7.7229     1.8063 Cl     62 CCL4  -0.0812 
 311 CL     -16.7193    -5.8759     1.9645 Cl     63 CCL4  -0.0812 
 312 C      -16.1074    -4.6034     0.9040 C.3    63 CCL4   0.3246 
 313 CL     -14.6039    -5.1395     0.1249 Cl     63 CCL4  -0.0812 
 314 CL     -15.6896    -3.0743     1.7428 Cl     63 CCL4  -0.0812 
 315 CL     -17.3204    -4.3327    -0.3766 Cl     63 CCL4  -0.0812 
 316 CL     -16.5889   -12.2718    13.1897 Cl     64 CCL4  -0.0812 
 317 C      -17.5511   -11.4808    14.4513 C.3    64 CCL4   0.3246 
 318 CL     -16.5197   -10.8653    15.7535 Cl     64 CCL4  -0.0812 
 319 CL     -18.7665   -12.4626    15.1889 Cl     64 CCL4  -0.0812 
 320 CL     -18.2608    -9.8801    13.6941 Cl     64 CCL4  -0.0812 
 321 CL     -15.8190    -6.7509    11.8698 Cl     65 CCL4  -0.0812 
 322 C      -16.6324    -6.1268    10.5139 C.3    65 CCL4   0.3246 
 323 CL     -18.2128    -6.9465    10.4078 Cl     65 CCL4  -0.0812 
 324 CL     -15.9039    -6.4445     9.0130 Cl     65 CCL4  -0.0812 
 325 CL     -16.8514    -4.4274    10.8105 Cl     65 CCL4  -0.0812 
 326 CL      24.2432   -12.6020     0.9749 Cl     66 CCL4  -0.0812 
 327 C       22.5416   -12.5439     0.6895 C.3    66 CCL4   0.3246 
 328 CL      21.8357   -14.0072     1.1484 Cl     66 CCL4  -0.0812 
 329 CL      22.2058   -12.0934    -1.0504 Cl     66 CCL4  -0.0812 
 330 CL      21.8869   -11.1756     1.7064 Cl     66 CCL4  -0.0812 
 331 CL      21.3371    -7.9232    15.2226 Cl     67 CCL4  -0.0812 
 332 C       21.9948    -9.1364    14.0976 C.3    67 CCL4   0.3246 
 333 CL      20.8524    -9.5485    12.8480 Cl     67 CCL4  -0.0812 
 334 CL      22.4891   -10.5515    14.9309 Cl     67 CCL4  -0.0812 
 335 CL      23.3345    -8.4260    13.2182 Cl     67 CCL4  -0.0812 
 336 CL      23.0751    -0.1444    16.2734 Cl     68 CCL4  -0.0812 
 337 C       23.1926    -1.9050    16.1240 C.3    68 CCL4   0.3246 
 338 CL      24.8019    -2.4189    16.5453 Cl     68 CCL4  -0.0812 
 339 CL      23.1120    -2.3576    14.3918 Cl     68 CCL4  -0.0812 
 340 CL      22.0332    -2.6827    17.1722 Cl     68 CCL4  -0.0812 
 341 CL     -21.3122    -5.7110    14.4482 Cl     69 CCL4  -0.0812 
 342 C      -19.6783    -5.3207    15.0321 C.3    69 CCL4   0.3246 
 343 CL     -19.5619    -3.5486    15.3395 Cl     69 CCL4  -0.0812 
 344 CL     -18.4557    -5.8318    13.8153 Cl     69 CCL4  -0.0812 
 345 CL     -19.3905    -6.0511    16.6160 Cl     69 CCL4  -0.0812 
 346 CL     -22.3006   -10.6207     5.8551 Cl     70 CCL4  -0.0812 
 347 C      -21.7696    -9.2733     6.8353 C.3    70 CCL4   0.3246 
 348 CL     -22.0165    -7.7063     5.9375 Cl     70 CCL4  -0.0812 
 349 CL     -20.0173    -9.5041     7.0938 Cl     70 CCL4  -0.0812 
 350 CL     -22.7039    -9.2213     8.4086 Cl     70 CCL4  -0.0812 
 351 CL     -24.1344   -16.4274     8.7494 Cl     71 CCL4  -0.0812 
 352 C      -24.6845   -17.7993     9.7072 C.3    71 CCL4   0.3246 
 353 CL     -25.6710   -17.2475    11.0725 Cl     71 CCL4  -0.0812 
 354 CL     -23.2547   -18.5991    10.3088 Cl     71 CCL4  -0.0812 
 355 CL     -25.7213   -18.8681     8.6399 Cl     71 CCL4  -0.0812 
 356 CL     -19.2932   -14.3374     4.9471 Cl     72 CCL4  -0.0812 
 357 C      -17.8214   -13.3794     4.8427 C.3    72 CCL4   0.3246 
 358 CL     -16.3409   -14.3952     4.9774 Cl     72 CCL4  -0.0812 
 359 CL     -17.7355   -12.0927     6.0265 Cl     72 CCL4  -0.0812 
 360 CL     -17.7008   -12.5490     3.2424 Cl     72 CCL4  -0.0812 
 361 CL     -20.2941   -19.6546     8.7017 Cl     73 CCL4  -0.0812 
 362 C      -19.5709   -18.0719     8.7394 C.3    73 CCL4   0.3246 
 363 CL     -19.2385   -17.7054    10.5271 Cl     73 CCL4  -0.0812 
 364 CL     -20.7085   -16.8067     8.2148 Cl     73 CCL4  -0.0812 
 365 CL     -18.0866   -17.8772     7.8103 Cl     73 CCL4  -0.0812 
 366 CL     -18.6679   -10.8711    10.0135 Cl     74 CCL4  -0.0812 
 367 C      -19.2061   -12.6320     9.9287 C.3    74 CCL4   0.3246 
 368 CL     -20.6588   -12.6303     8.8599 Cl     74 CCL4  -0.0812 
 369 CL     -19.5102   -13.2279    11.5523 Cl     74 CCL4  -0.0812 
 370 CL     -17.8469   -13.6205     9.3256 Cl     74 CCL4  -0.0812 
 371 CL     -18.6203    19.4463     1.9314 Cl     75 CCL4  -0.0812 
 372 C      -19.8316    18.3739     1.0135 C.3    75 CCL4   0.3246 
 373 CL     -20.0725    16.8691     1.9512 Cl     75 CCL4  -0.0812 
 374 CL     -19.1113    17.9868    -0.5999 Cl     75 CCL4  -0.0812 
 375 CL     -21.3877    19.2185     0.9910 Cl     75 CCL4  -0.0812 
 376 CL     -21.1925    -4.4226     0.4220 Cl     76 CCL4  -0.0812 
 377 C      -20.6442    -2.8346     0.8220 C.3    76 CCL4   0.3246 
 378 CL     -20.2674    -1.8706    -0.5539 Cl     76 CCL4  -0.0812 
 379 CL     -19.3232    -2.8752     1.9505 Cl     76 CCL4  -0.0812 
 380 CL     -21.9461    -1.9394     1.6553 Cl     76 CCL4  -0.0812 
 381 CL     -23.3351   -16.9876     4.9235 Cl     77 CCL4  -0.0812 
 382 C      -22.4675   -18.4723     4.9786 C.3    77 CCL4   0.3246 
 383 CL     -22.9866   -19.7104     3.7660 Cl     77 CCL4  -0.0812 
 384 CL     -22.8226   -19.2781     6.6628 Cl     77 CCL4  -0.0812 
 385 CL     -20.6721   -18.3159     4.9358 Cl     77 CCL4  -0.0812 
 386 CL     -22.9549    -4.4221    10.5959 Cl     78 CCL4  -0.0812 
 387 C      -21.3151    -3.9809    10.0963 C.3    78 CCL4   0.3246 
 388 CL     -20.3789    -3.6178    11.4716 Cl     78 CCL4  -0.0812 
 389 CL     -21.3915    -2.4561     9.2026 Cl     78 CCL4  -0.0812 
 390 CL     -20.7068    -5.3199     9.1377 Cl     78 CCL4  -0.0812 
 391 CL     -20.9970   -13.1664     1.9804 Cl     79 CCL4  -0.0812 
 392 C      -22.6818   -12.8598     1.5368 C.3    79 CCL4   0.3246 
 393 CL     -23.7098   -13.6737     2.7260 Cl     79 CCL4  -0.0812 
 394 CL     -23.0979   -13.4575    -0.1056 Cl     79 CCL4  -0.0812 
 395 CL     -23.2146   -11.1672     1.6356 Cl     79 CCL4  -0.0812 
 396 CL     -25.5663    -4.4530     4.6053 Cl     80 CCL4  -0.0812 
 397 C      -23.8819    -4.2013     5.0743 C.3    80 CCL4   0.3246 
 398 CL     -23.5822    -4.8218     6.6921 Cl     80 CCL4  -0.0812 
 399 CL     -23.7526    -2.3773     5.0824 Cl     80 CCL4  -0.0812 
 400 CL     -22.8847    -5.0134     3.7469 Cl     80 CCL4  -0.0812 
 401 CL     -20.9029   -16.8928    14.1477 Cl     81 CCL4  -0.0812 
 402 C      -22.1612   -15.8020    13.5010 C.3    81 CCL4   0.3246 
 403 CL     -23.8675   -16.5059    14.0292 Cl     81 CCL4  -0.0812 
 404 CL     -22.1408   -15.7302    11.7295 Cl     81 CCL4  -0.0812 
 405 CL     -22.2325   -14.1965    14.2854 Cl     81 CCL4  -0.0812 
 406 CL     -24.8890   -12.6793    12.5656 Cl     82 CCL4  -0.0812 
 407 C      -25.5668   -12.3297    11.0023 C.3    82 CCL4   0.3246 
 408 CL     -26.3852   -13.8271    10.5708 Cl     82 CCL4  -0.0812 
 409 CL     -24.4325   -11.9183     9.6691 Cl     82 CCL4  -0.0812 
 410 CL     -26.8069   -11.0466    11.0300 Cl     82 CCL4  -0.0812 
 411 CL     -22.5375    20.1500    15.0401 Cl     83 CCL4  -0.0812 
 412 C      -21.0585    19.4664    14.3506 C.3    83 CCL4   0.3246 
 413 CL     -20.8439    20.2291    12.7116 Cl     83 CCL4  -0.0812 
 414 CL     -21.1630    17.7148    14.2394 Cl     83 CCL4  -0.0812 
 415 CL     -19.6467    19.8541    15.3355 Cl     83 CCL4  -0.0812 
 416 CL     -24.3188     0.3916    13.8471 Cl     84 CCL4  -0.0812 
 417 C      -23.0486    -0.8537    13.6964 C.3    84 CCL4   0.3246 
 418 CL     -22.0668    -0.8587    15.1945 Cl     84 CCL4  -0.0812 
 419 CL     -22.1943    -0.4682    12.1190 Cl     84 CCL4  -0.0812 
 420 CL     -23.7650    -2.4895    13.6059 Cl     84 CCL4  -0.0812 
 421 CL     -25.9104   -10.9931     4.1137 Cl     85 CCL4  -0.0812 
 422 C      -26.3357    -9.1953     3.7424 C.3    85 CCL4   0.3246 
 423 CL     -25.4259    -8.0786     4.7534 Cl     85 CCL4  -0.0812 
 424 CL     -28.0701    -8.9745     4.1611 Cl     85 CCL4  -0.0812 
 425 CL     -25.9394    -8.8403     2.0773 Cl     85 CCL4  -0.0812 
 426 CL     -21.2885    -8.1844    12.0619 Cl     86 CCL4  -0.0812 
 427 C      -22.3061    -9.4464    12.8535 C.3    86 CCL4   0.3246 
 428 CL     -21.9562    -9.5413    14.6112 Cl     86 CCL4  -0.0812 
 429 CL     -21.9905   -11.0468    12.1699 Cl     86 CCL4  -0.0812 
 430 CL     -24.0700    -9.1442    12.5165 Cl     86 CCL4  -0.0812 
 431 CL     -27.0186    -6.2359     7.4441 Cl     87 CCL4  -0.0812 
 432 C      -26.5863    -7.5016     8.5868 C.3    87 CCL4   0.3246 
 433 CL     -27.8881    -7.4735     9.7291 Cl     87 CCL4  -0.0812 
 434 CL     -25.0147    -7.1391     9.4833 Cl     87 CCL4  -0.0812 
 435 CL     -26.3271    -9.0184     7.8117 Cl     87 CCL4  -0.0812 
 436 CL     -26.7172    -2.8153     8.6332 Cl     88 CCL4  -0.0812 
 437 C      -27.0921    -2.6083    10.3156 C.3    88 CCL4   0.3246 
 438 CL     -26.1485    -1.1844    10.8296 Cl     88 CCL4  -0.0812 
 439 CL     -26.5849    -4.0426    11.1910 Cl     88 CCL4  -0.0812 
 440 CL     -28.7723    -2.3044    10.6933 Cl     88 CCL4  -0.0812 
 441 CL     -27.4749    11.1149   -20.4852 Cl     89 CCL4  -0.0812 
 442 C      -26.9735    11.1147   -18.8647 C.3    89 CCL4   0.3246 
 443 CL     -27.3100     9.6191   -18.0800 Cl     89 CCL4  -0.0812 
 444 CL     -27.5317    12.4701   -17.9786 Cl     89 CCL4  -0.0812 
 445 CL     -25.1815    11.2412   -18.8870 Cl     89 CCL4  -0.0812 
 446 CL     -15.8567     1.1671    20.7156 Cl     90 CCL4  -0.0812 
 447 C      -16.0253     0.4394    19.1016 C.3    90 CCL4   0.3246 
 448 CL     -17.3880    -0.7249    19.0053 Cl     90 CCL4  -0.0812 
 449 CL     -14.4319    -0.1929    18.6737 Cl     90 CCL4  -0.0812 
 450 CL     -16.3705     1.8263    17.9967 Cl     90 CCL4  -0.0812 
 451 CL      22.4635     7.9769    18.5967 Cl     91 CCL4  -0.0812 
 452 C       22.2160     6.4062    19.3624 C.3    91 CCL4   0.3246 
 453 CL      20.8372     6.4423    20.4459 Cl     91 CCL4  -0.0812 
 454 CL      23.6730     5.9201    20.3076 Cl     91 CCL4  -0.0812 
 455 CL      21.9933     5.1261    18.0834 Cl     91 CCL4  -0.0812 
 456 CL     -14.3689    10.9503   -14.5211 Cl     92 CCL4  -0.0812 
 457 C      -14.6982     9.3228   -15.1778 C.3    92 CCL4   0.3246 
 458 CL     -15.9491     8.4839   -14.2914 Cl     92 CCL4  -0.0812 
 459 CL     -13.3058     8.3199   -14.9440 Cl     92 CCL4  -0.0812 
 460 CL     -15.1110     9.5715   -16.9285 Cl     92 CCL4  -0.0812 
 461 CL     -14.0840     2.9300   -14.7223 Cl     93 CCL4  -0.0812 
 462 C      -15.5495     3.8059   -15.2470 C.3    93 CCL4   0.3246 
 463 CL     -14.9845     5.0496   -16.3998 Cl     93 CCL4  -0.0812 
 464 CL     -16.4417     4.5547   -13.9483 Cl     93 CCL4  -0.0812 
 465 CL     -16.6509     2.7196   -16.2323 Cl     93 CCL4  -0.0812 
 466 CL     -16.1588    10.1465    -9.7254 Cl     94 CCL4  -0.0812 
 467 C      -16.9154     8.5786    -9.2454 C.3    94 CCL4   0.3246 
 468 CL     -17.0235     7.5251   -10.7008 Cl     94 CCL4  -0.0812 
 469 CL     -18.5954     8.9211    -8.6111 Cl     94 CCL4  -0.0812 
 470 CL     -15.9691     7.6741    -7.9476 Cl     94 CCL4  -0.0812 
 471 CL     -16.5568     4.5752    20.1677 Cl     95 CCL4  -0.0812 
 472 C      -16.0127     6.0843    19.4398 C.3    95 CCL4   0.3246 
 473 CL     -14.7417     6.8650    20.4834 Cl     95 CCL4  -0.0812 
 474 CL     -17.3248     7.3269    19.3447 Cl     95 CCL4  -0.0812 
 475 CL     -15.3445     5.9734    17.8724 Cl     95 CCL4  -0.0812 
 476 CL      21.7490     1.6370    -3.7129 Cl     96 CCL4  -0.0812 
 477 C       23.0152     0.3584    -3.3809 C.3    96 CCL4   0.3246 
 478 CL      24.2224     1.0642    -2.2985 Cl     96 CCL4  -0.0812 
 479 CL      23.7372    -0.0569    -4.9578 Cl     96 CCL4  -0.0812 
 480 CL      22.2471    -1.0540    -2.5830 Cl     96 CCL4  -0.0812 
 481 CL     -28.0224    10.2939    -4.9643 Cl     97 CCL4  -0.0812 
 482 C      -27.2783     9.5952    -3.6106 C.3    97 CCL4   0.3246 
 483 CL     -28.3016     9.6285    -2.1609 Cl     97 CCL4  -0.0812 
 484 CL     -25.9034    10.6152    -3.1042 Cl     97 CCL4  -0.0812 
 485 CL     -26.7291     7.9659    -3.9419 Cl     97 CCL4  -0.0812 
 486 CL     -13.8433     4.4443    -8.7163 Cl     98 CCL4  -0.0812 
 487 C      -14.8060     3.0657    -9.4363 C.3    98 CCL4   0.3246 
 488 CL     -13.9630     2.4221   -10.8902 Cl     98 CCL4  -0.0812 
 489 CL     -16.3739     3.6973    -9.9152 Cl     98 CCL4  -0.0812 
 490 CL     -15.1272     1.6824    -8.2746 Cl     98 CCL4  -0.0812 
 491 CL      21.4833     8.5555   -10.8910 Cl     99 CCL4  -0.0812 
 492 C       22.3842     9.6282    -9.8172 C.3    99 CCL4   0.3246 
 493 CL      23.5441    10.7156   -10.6257 Cl     99 CCL4  -0.0812 
 494 CL      23.3562     8.5436    -8.5693 Cl     99 CCL4  -0.0812 
 495 CL      21.2782    10.5937    -8.8376 Cl     99 CCL4  -0.0812 
 496 CL     -25.2938     4.0291   -12.5096 Cl    100 CCL4  -0.0812 
 497 C      -26.8322     4.4535   -11.9210 C.3   100 CCL4   0.3246 
 498 CL     -27.9140     4.7724   -13.3636 Cl    100 CCL4  -0.0812 
 499 CL     -26.7425     5.9035   -10.9834 Cl    100 CCL4  -0.0812 
 500 CL     -27.5670     3.1706   -10.9937 Cl    100 CCL4  -0.0812 
 501 CL     -23.9177    12.9679    -8.2405 Cl    101 CCL4  -0.0812 
 502 C      -23.3204    11.7655    -7.1339 C.3   101 CCL4   0.3246 
 503 CL     -24.0785    10.1959    -7.5381 Cl    101 CCL4  -0.0812 
 504 CL     -23.7821    12.1727    -5.4313 Cl    101 CCL4  -0.0812 
 505 CL     -21.5567    11.5557    -7.1469 Cl    101 CCL4  -0.0812 
 506 CL     -17.8278    12.8127    -5.8347 Cl    102 CCL4  -0.0812 
 507 C      -16.4786    12.0069    -4.9347 C.3   102 CCL4   0.3246 
 508 CL     -14.8809    12.3974    -5.7574 Cl    102 CCL4  -0.0812 
 509 CL     -16.7298    10.2484    -4.9975 Cl    102 CCL4  -0.0812 
 510 CL     -16.4723    12.6929    -3.2699 Cl    102 CCL4  -0.0812 
 511 CL     -19.3926     2.0232   -13.4799 Cl    103 CCL4  -0.0812 
 512 C      -18.3903     0.5172   -13.2809 C.3   103 CCL4   0.3246 
 513 CL     -19.0477    -0.2307   -11.7922 Cl    103 CCL4  -0.0812 
 514 CL     -16.6693     0.9698   -12.8195 Cl    103 CCL4  -0.0812 
 515 CL     -18.4596    -0.4646   -14.7869 Cl    103 CCL4  -0.0812 
 516 CL     -16.5889    12.7282   -11.8103 Cl    104 CCL4  -0.0812 
 517 C      -17.5511    13.5192   -10.5487 C.3   104 CCL4   0.3246 
 518 CL     -16.5197    14.1347    -9.2465 Cl    104 CCL4  -0.0812 
 519 CL     -18.7665    12.5374    -9.8111 Cl    104 CCL4  -0.0812 
 520 CL     -18.2608    15.1199   -11.3059 Cl    104 CCL4  -0.0812 
 521 CL      23.9929    19.2747    -5.8263 Cl    105 CCL4  -0.0812 
 522 C       22.4081    19.2650    -5.0251 C.3   105 CCL4   0.3246 
 523 CL      22.2712    18.0555    -3.7085 Cl    105 CCL4  -0.0812 
 524 CL      21.0617    19.0287    -6.2639 Cl    105 CCL4  -0.0812 
 525 CL      22.0497    20.9479    -4.4717 Cl    105 CCL4  -0.0812 
 526 CL      22.9383    13.7622    -4.1533 Cl    106 CCL4  -0.0812 
 527 C       22.3044    13.8948    -5.8122 C.3   106 CCL4   0.3246 
 528 CL      23.3138    13.0814    -6.9988 Cl    106 CCL4  -0.0812 
 529 CL      22.0936    15.6919    -6.2671 Cl    106 CCL4  -0.0812 
 530 CL      20.7433    13.1441    -5.9126 Cl    106 CCL4  -0.0812 
 531 CL     -24.5738    16.2645    -4.5749 Cl    107 CCL4  -0.0812 
 532 C      -24.4625    16.0816    -2.8362 C.3   107 CCL4   0.3246 
 533 CL     -22.7814    16.7618    -2.4033 Cl    107 CCL4  -0.0812 
 534 CL     -24.5701    14.3257    -2.4441 Cl    107 CCL4  -0.0812 
 535 CL     -25.6565    17.0172    -1.9565 Cl    107 CCL4  -0.0812 
 536 CL     -22.3006    14.3793   -19.1449 Cl    108 CCL4  -0.0812 
 537 C      -21.7696    15.7267   -18.1647 C.3   108 CCL4   0.3246 
 538 CL     -22.0165    17.2937   -19.0625 Cl    108 CCL4  -0.0812 
 539 CL     -20.0173    15.4959   -17.9062 Cl    108 CCL4  -0.0812 
 540 CL     -22.7039    15.7787   -16.5914 Cl    108 CCL4  -0.0812 
 541 CL     -24.1344     8.5726   -16.2506 Cl    109 CCL4  -0.0812 
 542 C      -24.6845     7.2007   -15.2928 C.3   109 CCL4   0.3246 
 543 CL     -25.6710     7.7525   -13.9275 Cl    109 CCL4  -0.0812 
 544 CL     -23.2547     6.4009   -14.6912 Cl    109 CCL4  -0.0812 
 545 CL     -25.7213     6.1319   -16.3601 Cl    109 CCL4  -0.0812 
 546 CL     -19.0417     9.6400    -0.9294 Cl    110 CCL4  -0.0812 
 547 C      -18.2435     8.3406    -0.0134 C.3   110 CCL4   0.3246 
 548 CL     -19.6193     7.5047     0.7097 Cl    110 CCL4  -0.0812 
 549 CL     -17.2241     9.1223     1.1354 Cl    110 CCL4  -0.0812 
 550 CL     -17.4182     7.2755    -1.0606 Cl    110 CCL4  -0.0812 
 551 CL     -19.2932    10.6626    19.9471 Cl    111 CCL4  -0.0812 
 552 C      -17.8214    11.6206    19.8427 C.3   111 CCL4   0.3246 
 553 CL     -16.3409    10.6048    19.9774 Cl    111 CCL4  -0.0812 
 554 CL     -17.7355    12.9073    21.0265 Cl    111 CCL4  -0.0812 
 555 CL     -17.7008    12.4510    18.2424 Cl    111 CCL4  -0.0812 
 556 CL     -20.2941     5.3454   -16.2983 Cl    112 CCL4  -0.0812 
 557 C      -19.5709     6.9281   -16.2606 C.3   112 CCL4   0.3246 
 558 CL     -19.2385     7.2946   -14.4729 Cl    112 CCL4  -0.0812 
 559 CL     -20.7085     8.1933   -16.7852 Cl    112 CCL4  -0.0812 
 560 CL     -18.0866     7.1228   -17.1897 Cl    112 CCL4  -0.0812 
 561 CL     -18.6679    14.1289   -14.9865 Cl    113 CCL4  -0.0812 
 562 C      -19.2061    12.3680   -15.0713 C.3   113 CCL4   0.3246 
 563 CL     -20.6588    12.3697   -16.1401 Cl    113 CCL4  -0.0812 
 564 CL     -19.5102    11.7721   -13.4477 Cl    113 CCL4  -0.0812 
 565 CL     -17.8469    11.3795   -15.6744 Cl    113 CCL4  -0.0812 
 566 CL     -23.3351     8.0124   -20.0765 Cl    114 CCL4  -0.0812 
 567 C      -22.4675     6.5277   -20.0214 C.3   114 CCL4   0.3246 
 568 CL     -22.9866     5.2896   -21.2340 Cl    114 CCL4  -0.0812 
 569 CL     -22.8226     5.7219   -18.3372 Cl    114 CCL4  -0.0812 
 570 CL     -20.6721     6.6841   -20.0642 Cl    114 CCL4  -0.0812 
 571 CL     -24.8191     2.9259   -18.0481 Cl    115 CCL4  -0.0812 
 572 C      -24.4449     2.1077   -16.5331 C.3   115 CCL4   0.3246 
 573 CL     -23.1488     2.9247   -15.6812 Cl    115 CCL4  -0.0812 
 574 CL     -23.9051     0.4167   -16.8286 Cl    115 CCL4  -0.0812 
 575 CL     -25.9292     1.9031   -15.4509 Cl    115 CCL4  -0.0812 
 576 CL     -20.5928    -0.2272   -19.7766 Cl    116 CCL4  -0.0812 
 577 C      -20.5090     1.2617   -18.8387 C.3   116 CCL4   0.3246 
 578 CL     -20.5068     1.0621   -17.1376 Cl    116 CCL4  -0.0812 
 579 CL     -21.7941     2.3745   -19.3116 Cl    116 CCL4  -0.0812 
 580 CL     -19.0892     2.3249   -19.3550 Cl    116 CCL4  -0.0812 
 581 CL     -20.9029     8.1072   -10.8523 Cl    117 CCL4  -0.0812 
 582 C      -22.1612     9.1980   -11.4990 C.3   117 CCL4   0.3246 
 583 CL     -23.8675     8.4941   -10.9708 Cl    117 CCL4  -0.0812 
 584 CL     -22.1408     9.2698   -13.2705 Cl    117 CCL4  -0.0812 
 585 CL     -22.2325    10.8035   -10.7146 Cl    117 CCL4  -0.0812 
 586 CL     -24.8890    12.3207   -12.4344 Cl    118 CCL4  -0.0812 
 587 C      -25.5668    12.6703   -13.9977 C.3   118 CCL4   0.3246 
 588 CL     -26.3852    11.1729   -14.4292 Cl    118 CCL4  -0.0812 
 589 CL     -24.4325    13.0817   -15.3309 Cl    118 CCL4  -0.0812 
 590 CL     -26.8069    13.9534   -13.9700 Cl    118 CCL4  -0.0812 
 591 CL     -22.5375     5.1500    -9.9599 Cl    119 CCL4  -0.0812 
 592 C      -21.0585     4.4664   -10.6494 C.3   119 CCL4   0.3246 
 593 CL     -20.8439     5.2291   -12.2884 Cl    119 CCL4  -0.0812 
 594 CL     -21.1630     2.7148   -10.7606 Cl    119 CCL4  -0.0812 
 595 CL     -19.6467     4.8541    -9.6645 Cl    119 CCL4  -0.0812 
 596 CL     -20.0425    -0.5033    -6.5477 Cl    120 CCL4  -0.0812 
 597 C      -18.5593     0.3054    -7.1431 C.3   120 CCL4   0.3246 
 598 CL     -19.0880     1.5223    -8.3418 Cl    120 CCL4  -0.0812 
 599 CL     -17.4568    -0.8917    -7.8138 Cl    120 CCL4  -0.0812 
 600 CL     -17.7369     0.9740    -5.7450 Cl    120 CCL4  -0.0812 
 601 CL     -21.0479    14.0235    -1.1332 Cl    121 CCL4  -0.0812 
 602 C      -19.4503    13.6550    -1.8116 C.3   121 CCL4   0.3246 
 603 CL     -18.8024    15.1527    -2.6667 Cl    121 CCL4  -0.0812 
 604 CL     -19.6380    12.3344    -2.9425 Cl    121 CCL4  -0.0812 
 605 CL     -18.2978    13.1629    -0.4622 Cl    121 CCL4  -0.0812 
 606 CL     -20.7077     6.9895    -2.7255 Cl    122 CCL4  -0.0812 
 607 C      -21.7376     7.7649    -3.9805 C.3   122 CCL4   0.3246 
 608 CL     -22.7879     6.5342    -4.6803 Cl    122 CCL4  -0.0812 
 609 CL     -20.7830     8.5676    -5.2293 Cl    122 CCL4  -0.0812 
 610 CL     -22.7684     8.9616    -3.0267 Cl    122 CCL4  -0.0812 
 611 CL     -25.3084     3.1624    -5.9898 Cl    123 CCL4  -0.0812 
 612 C      -24.1940     2.5288    -7.2922 C.3   123 CCL4   0.3246 
 613 CL     -23.9875     0.7962    -7.0882 Cl    123 CCL4  -0.0812 
 614 CL     -22.7487     3.4315    -6.9297 Cl    123 CCL4  -0.0812 
 615 CL     -24.8501     3.0285    -8.8548 Cl    123 CCL4  -0.0812 
 616 CL     -18.0107     6.5036    -4.6247 Cl    124 CCL4  -0.0812 
 617 C      -18.0162     4.8566    -5.0478 C.3   124 CCL4   0.3246 
 618 CL     -17.5521     3.9343    -3.5494 Cl    124 CCL4  -0.0812 
 619 CL     -16.8622     4.4835    -6.2559 Cl    124 CCL4  -0.0812 
 620 CL     -19.6167     4.3619    -5.4611 Cl    124 CCL4  -0.0812 
 621 CL     -22.7523     3.2479    -2.5650 Cl    125 CCL4  -0.0812 
 622 C      -22.0838     1.5904    -2.8203 C.3   125 CCL4   0.3246 
 623 CL     -20.5112     1.6810    -3.5682 Cl    125 CCL4  -0.0812 
 624 CL     -23.1418     0.6410    -3.8916 Cl    125 CCL4  -0.0812 
 625 CL     -21.8156     0.8950    -1.1618 Cl    125 CCL4  -0.0812 
 626 CL     -25.9104    14.0069    19.1137 Cl    126 CCL4  -0.0812 
 627 C      -26.3357    15.8047    18.7424 C.3   126 CCL4   0.3246 
 628 CL     -25.4259    16.9214    19.7534 Cl    126 CCL4  -0.0812 
 629 CL     -28.0701    16.0255    19.1611 Cl    126 CCL4  -0.0812 
 630 CL     -25.9394    16.1597    17.0773 Cl    126 CCL4  -0.0812 
 631 CL     -27.0186    18.7641   -17.5559 Cl    127 CCL4  -0.0812 
 632 C      -26.5863    17.4984   -16.4132 C.3   127 CCL4   0.3246 
 633 CL     -27.8881    17.5265   -15.2709 Cl    127 CCL4  -0.0812 
 634 CL     -25.0147    17.8609   -15.5167 Cl    127 CCL4  -0.0812 
 635 CL     -26.3271    15.9816   -17.1883 Cl    127 CCL4  -0.0812 
 636 CL     -27.4749    11.1149     4.5148 Cl    128 CCL4  -0.0812 
 637 C      -26.9735    11.1147     6.1353 C.3   128 CCL4   0.3246 
 638 CL     -27.3100     9.6191     6.9200 Cl    128 CCL4  -0.0812 
 639 CL     -27.5317    12.4701     7.0214 Cl    128 CCL4  -0.0812 
 640 CL     -25.1815    11.2412     6.1130 Cl    128 CCL4  -0.0812 
 641 CL     -15.8567     1.1671     5.7156 Cl    129 CCL4  -0.0812 
 642 C      -16.0253     0.4394     4.1016 C.3   129 CCL4   0.3246 
 643 CL     -17.3880    -0.7249     4.0053 Cl    129 CCL4  -0.0812 
 644 CL     -14.4319    -0.1929     3.6737 Cl    129 CCL4  -0.0812 
 645 CL     -16.3705     1.8263     2.9967 Cl    129 CCL4  -0.0812 
 646 CL     -25.4191     8.7017    -0.1589 Cl    130 CCL4  -0.0812 
 647 C      -24.4184     7.3756     0.5948 C.3   130 CCL4   0.3246 
 648 CL     -24.0012     6.2970    -0.7489 Cl    130 CCL4  -0.0812 
 649 CL     -25.3546     6.5789     1.8323 Cl    130 CCL4  -0.0812 
 650 CL     -22.9908     8.1047     1.3382 Cl    130 CCL4  -0.0812 
 651 CL      22.4635     7.9769     3.5967 Cl    131 CCL4  -0.0812 
 652 C       22.2160     6.4062     4.3624 C.3   131 CCL4   0.3246 
 653 CL      20.8372     6.4423     5.4459 Cl    131 CCL4  -0.0812 
 654 CL      23.6730     5.9201     5.3076 Cl    131 CCL4  -0.0812 
 655 CL      21.9933     5.1261     3.0834 Cl    131 CCL4  -0.0812 
 656 CL     -14.3689    10.9503    10.4789 Cl    132 CCL4  -0.0812 
 657 C      -14.6982     9.3228     9.8222 C.3   132 CCL4   0.3246 
 658 CL     -15.9491     8.4839    10.7086 Cl    132 CCL4  -0.0812 
 659 CL     -13.3058     8.3199    10.0560 Cl    132 CCL4  -0.0812 
 660 CL     -15.1110     9.5715     8.0715 Cl    132 CCL4  -0.0812 
 661 CL     -14.0840     2.9300    10.2777 Cl    133 CCL4  -0.0812 
 662 C      -15.5495     3.8059     9.7530 C.3   133 CCL4   0.3246 
 663 CL     -14.9845     5.0496     8.6002 Cl    133 CCL4  -0.0812 
 664 CL     -16.4417     4.5547    11.0517 Cl    133 CCL4  -0.0812 
 665 CL     -16.6509     2.7196     8.7677 Cl    133 CCL4  -0.0812 
 666 CL     -16.5568     4.5752     5.1677 Cl    134 CCL4  -0.0812 
 667 C      -16.0127     6.0843     4.4398 C.3   134 CCL4   0.3246 
 668 CL     -14.7417     6.8650     5.4834 Cl    134 CCL4  -0.0812 
 669 CL     -17.3248     7.3269     4.3447 Cl    134 CCL4  -0.0812 
 670 CL     -15.3445     5.9734     2.8724 Cl    134 CCL4  -0.0812 
 671 CL      21.4833     8.5555    14.1090 Cl    135 CCL4  -0.0812 
 672 C       22.3842     9.6282    15.1828 C.3   135 CCL4   0.3246 
 673 CL      23.5441    10.7156    14.3743 Cl    135 CCL4  -0.0812 
 674 CL      23.3562     8.5436    16.4307 Cl    135 CCL4  -0.0812 
 675 CL      21.2782    10.5937    16.1624 Cl    135 CCL4  -0.0812 
 676 CL     -25.2938     4.0291    12.4904 Cl    136 CCL4  -0.0812 
 677 C      -26.8322     4.4535    13.0790 C.3   136 CCL4   0.3246 
 678 CL     -27.9140     4.7724    11.6364 Cl    136 CCL4  -0.0812 
 679 CL     -26.7425     5.9035    14.0166 Cl    136 CCL4  -0.0812 
 680 CL     -27.5670     3.1706    14.0063 Cl    136 CCL4  -0.0812 
 681 CL     -19.3926     2.0232    11.5201 Cl    137 CCL4  -0.0812 
 682 C      -18.3903     0.5172    11.7191 C.3   137 CCL4   0.3246 
 683 CL     -19.0477    -0.2307    13.2078 Cl    137 CCL4  -0.0812 
 684 CL     -16.6693     0.9698    12.1805 Cl    137 CCL4  -0.0812 
 685 CL     -18.4596    -0.4646    10.2131 Cl    137 CCL4  -0.0812 
 686 CL     -16.5889    12.7282    13.1897 Cl    138 CCL4  -0.0812 
 687 C      -17.5511    13.5192    14.4513 C.3   138 CCL4   0.3246 
 688 CL     -16.5197    14.1347    15.7535 Cl    138 CCL4  -0.0812 
 689 CL     -18.7665    12.5374    15.1889 Cl    138 CCL4  -0.0812 
 690 CL     -18.2608    15.1199    13.6941 Cl    138 CCL4  -0.0812 
 691 CL      24.2432    12.3980     0.9749 Cl    139 CCL4  -0.0812 
 692 C       22.5416    12.4561     0.6895 C.3   139 CCL4   0.3246 
 693 CL      21.8357    10.9928     1.1484 Cl    139 CCL4  -0.0812 
 694 CL      22.2058    12.9066    -1.0504 Cl    139 CCL4  -0.0812 
 695 CL      21.8869    13.8244     1.7064 Cl    139 CCL4  -0.0812 
 696 CL     -22.3006    14.3793     5.8551 Cl    140 CCL4  -0.0812 
 697 C      -21.7696    15.7267     6.8353 C.3   140 CCL4   0.3246 
 698 CL     -22.0165    17.2937     5.9375 Cl    140 CCL4  -0.0812 
 699 CL     -20.0173    15.4959     7.0938 Cl    140 CCL4  -0.0812 
 700 CL     -22.7039    15.7787     8.4086 Cl    140 CCL4  -0.0812 
 701 CL     -24.1344     8.5726     8.7494 Cl    141 CCL4  -0.0812 
 702 C      -24.6845     7.2007     9.7072 C.3   141 CCL4   0.3246 
 703 CL     -25.6710     7.7525    11.0725 Cl    141 CCL4  -0.0812 
 704 CL     -23.2547     6.4009    10.3088 Cl    141 CCL4  -0.0812 
 705 CL     -25.7213     6.1319     8.6399 Cl    141 CCL4  -0.0812 
 706 CL     -19.2932    10.6626     4.9471 Cl    142 CCL4  -0.0812 
 707 C      -17.8214    11.6206     4.8427 C.3   142 CCL4   0.3246 
 708 CL     -16.3409    10.6048     4.9774 Cl    142 CCL4  -0.0812 
 709 CL     -17.7355    12.9073     6.0265 Cl    142 CCL4  -0.0812 
 710 CL     -17.7008    12.4510     3.2424 Cl    142 CCL4  -0.0812 
 711 CL     -20.2941     5.3454     8.7017 Cl    143 CCL4  -0.0812 
 712 C      -19.5709     6.9281     8.7394 C.3   143 CCL4   0.3246 
 713 CL     -19.2385     7.2946    10.5271 Cl    143 CCL4  -0.0812 
 714 CL     -20.7085     8.1933     8.2148 Cl    143 CCL4  -0.0812 
 715 CL     -18.0866     7.1228     7.8103 Cl    143 CCL4  -0.0812 
 716 CL     -18.6679    14.1289    10.0135 Cl    144 CCL4  -0.0812 
 717 C      -19.2061    12.3680     9.9287 C.3   144 CCL4   0.3246 
 718 CL     -20.6588    12.3697     8.8599 Cl    144 CCL4  -0.0812 
 719 CL     -19.5102    11.7721    11.5523 Cl    144 CCL4  -0.0812 
 720 CL     -17.8469    11.3795     9.3256 Cl    144 CCL4  -0.0812 
 721 CL     -25.8218     0.2623     1.6416 Cl    145 CCL4  -0.0812 
 722 C      -24.9307     1.8032     1.9849 C.3   145 CCL4   0.3246 
 723 CL     -23.4138     1.4351     2.9515 Cl    145 CCL4  -0.0812 
 724 CL     -26.0174     2.8939     2.8944 Cl    145 CCL4  -0.0812 
 725 CL     -24.4924     2.5815     0.4473 Cl    145 CCL4  -0.0812 
 726 CL     -18.6203     4.4463     1.9314 Cl    146 CCL4  -0.0812 
 727 C      -19.8316     3.3739     1.0135 C.3   146 CCL4   0.3246 
 728 CL     -20.0725     1.8691     1.9512 Cl    146 CCL4  -0.0812 
 729 CL     -19.1113     2.9868    -0.5999 Cl    146 CCL4  -0.0812 
 730 CL     -21.3877     4.2185     0.9910 Cl    146 CCL4  -0.0812 
 731 CL     -23.3351     8.0124     4.9235 Cl    147 CCL4  -0.0812 
 732 C      -22.4675     6.5277     4.9786 C.3   147 CCL4   0.3246 
 733 CL     -22.9866     5.2896     3.7660 Cl    147 CCL4  -0.0812 
 734 CL     -22.8226     5.7219     6.6628 Cl    147 CCL4  -0.0812 
 735 CL     -20.6721     6.6841     4.9358 Cl    147 CCL4  -0.0812 
 736 CL     -24.8191     2.9259     6.9519 Cl    148 CCL4  -0.0812 
 737 C      -24.4449     2.1077     8.4669 C.3   148 CCL4   0.3246 
 738 CL     -23.1488     2.9247     9.3188 Cl    148 CCL4  -0.0812 
 739 CL     -23.9051     0.4167     8.1714 Cl    148 CCL4  -0.0812 
 740 CL     -25.9292     1.9031     9.5491 Cl    148 CCL4  -0.0812 
 741 CL     -20.9970    11.8336     1.9804 Cl    149 CCL4  -0.0812 
 742 C      -22.6818    12.1402     1.5368 C.3   149 CCL4   0.3246 
 743 CL     -23.7098    11.3263     2.7260 Cl    149 CCL4  -0.0812 
 744 CL     -23.0979    11.5425    -0.1056 Cl    149 CCL4  -0.0812 
 745 CL     -23.2146    13.8328     1.6356 Cl    149 CCL4  -0.0812 
 746 CL     -20.5928    -0.2272     5.2234 Cl    150 CCL4  -0.0812 
 747 C      -20.5090     1.2617     6.1613 C.3   150 CCL4   0.3246 
 748 CL     -20.5068     1.0621     7.8624 Cl    150 CCL4  -0.0812 
 749 CL     -21.7941     2.3745     5.6884 Cl    150 CCL4  -0.0812 
 750 CL     -19.0892     2.3249     5.6450 Cl    150 CCL4  -0.0812 
 751 CL     -20.9029     8.1072    14.1477 Cl    151 CCL4  -0.0812 
 752 C      -22.1612     9.1980    13.5010 C.3   151 CCL4   0.3246 
 753 CL     -23.8675     8.4941    14.0292 Cl    151 CCL4  -0.0812 
 754 CL     -22.1408     9.2698    11.7295 Cl    151 CCL4  -0.0812 
 755 CL     -22.2325    10.8035    14.2854 Cl    151 CCL4  -0.0812 
 756 CL     -24.8890    12.3207    12.5656 Cl    152 CCL4  -0.0812 
 757 C      -25.5668    12.6703    11.0023 C.3   152 CCL4   0.3246 
 758 CL     -26.3852    11.1729    10.5708 Cl    152 CCL4  -0.0812 
 759 CL     -24.4325    13.0817     9.6691 Cl    152 CCL4  -0.0812 
 760 CL     -26.8069    13.9534    11.0300 Cl    152 CCL4  -0.0812 
 761 CL     -22.5375     5.1500    15.0401 Cl    153 CCL4  -0.0812 
 762 C      -21.0585     4.4664    14.3506 C.3   153 CCL4   0.3246 
 763 CL     -20.8439     5.2291    12.7116 Cl    153 CCL4  -0.0812 
 764 CL     -21.1630     2.7148    14.2394 Cl    153 CCL4  -0.0812 
 765 CL     -19.6467     4.8541    15.3355 Cl    153 CCL4  -0.0812 
 766 CL     -25.9104    14.0069     4.1137 Cl    154 CCL4  -0.0812 
 767 C      -26.3357    15.8047     3.7424 C.3   154 CCL4   0.3246 
 768 CL     -25.4259    16.9214     4.7534 Cl    154 CCL4  -0.0812 
 769 CL     -28.0701    16.0255     4.1611 Cl    154 CCL4  -0.0812 
 770 CL     -25.9394    16.1597     2.0773 Cl    154 CCL4  -0.0812 
 771 CL     -14.1317   -11.9309   -17.3444 Cl    155 CCL4  -0.0812 
 772 C      -14.3660   -10.2894   -16.6802 C.3   155 CCL4   0.3246 
 773 CL     -15.8608    -9.6625   -17.3884 Cl    155 CCL4  -0.0812 
 774 CL     -12.9431    -9.2329   -16.9027 Cl    155 CCL4  -0.0812 
 775 CL     -14.5777   -10.5002   -14.9168 Cl    155 CCL4  -0.0812 
 776 CL      -2.4749   -13.8851   -20.4852 Cl    156 CCL4  -0.0812 
 777 C       -1.9735   -13.8853   -18.8647 C.3   156 CCL4   0.3246 
 778 CL      -2.3100   -15.3809   -18.0800 Cl    156 CCL4  -0.0812 
 779 CL      -2.5317   -12.5299   -17.9786 Cl    156 CCL4  -0.0812 
 780 CL      -0.1815   -13.7588   -18.8870 Cl    156 CCL4  -0.0812 
 781 CL      -4.5901    16.9453   -14.6975 Cl    157 CCL4  -0.0812 
 782 C       -5.1880    17.9632   -16.0927 C.3   157 CCL4   0.3246 
 783 CL      -6.4265    17.1844   -17.1753 Cl    157 CCL4  -0.0812 
 784 CL      -3.8104    18.5240   -17.0918 Cl    157 CCL4  -0.0812 
 785 CL      -5.9188    19.5019   -15.3522 Cl    157 CCL4  -0.0812 
 786 CL     -10.3218   -11.5786   -15.4507 Cl    158 CCL4  -0.0812 
 787 C      -10.0355   -13.3336   -15.3235 C.3   158 CCL4   0.3246 
 788 CL     -10.2803   -13.8487   -13.6327 Cl    158 CCL4  -0.0812 
 789 CL      -8.4964   -13.9330   -15.8870 Cl    158 CCL4  -0.0812 
 790 CL     -11.2896   -14.1467   -16.2914 Cl    158 CCL4  -0.0812 
 791 CL      -3.2171   -19.4265    -0.4372 Cl    159 CCL4  -0.0812 
 792 C       -4.8889   -18.8292    -0.5641 C.3   159 CCL4   0.3246 
 793 CL      -5.2447   -18.5772    -2.3577 Cl    159 CCL4  -0.0812 
 794 CL      -5.2184   -17.3056     0.2756 Cl    159 CCL4  -0.0812 
 795 CL      -6.1227   -20.0522    -0.1392 Cl    159 CCL4  -0.0812 
 796 CL      -8.8724    -2.6966   -15.2683 Cl    160 CCL4  -0.0812 
 797 C       -8.3382    -1.1352   -15.9537 C.3   160 CCL4   0.3246 
 798 CL      -9.2664     0.2799   -15.4200 Cl    160 CCL4  -0.0812 
 799 CL      -8.1916    -1.1249   -17.7012 Cl    160 CCL4  -0.0812 
 800 CL      -6.7047    -0.8694   -15.2966 Cl    160 CCL4  -0.0812 
 801 CL      -4.8760   -14.4963   -15.6180 Cl    161 CCL4  -0.0812 
 802 C       -5.3845   -16.2236   -15.4018 C.3   161 CCL4   0.3246 
 803 CL      -3.9575   -17.1670   -14.9376 Cl    161 CCL4  -0.0812 
 804 CL      -6.0456   -16.9063   -16.8542 Cl    161 CCL4  -0.0812 
 805 CL      -6.4802   -16.3389   -13.9509 Cl    161 CCL4  -0.0812 
 806 CL      -9.4695    18.2605   -15.6726 Cl    162 CCL4  -0.0812 
 807 C      -10.2134    18.7511   -14.1214 C.3   162 CCL4   0.3246 
 808 CL      -8.9895    19.2398   -13.0486 Cl    162 CCL4  -0.0812 
 809 CL     -11.0903    17.3375   -13.5054 Cl    162 CCL4  -0.0812 
 810 CL     -11.4040    20.0938   -14.4262 Cl    162 CCL4  -0.0812 
 811 CL       6.6743    -6.0773   -18.1589 Cl    163 CCL4  -0.0812 
 812 C        6.6290    -4.4572   -18.8412 C.3   163 CCL4   0.3246 
 813 CL       6.8741    -3.1828   -17.4840 Cl    163 CCL4  -0.0812 
 814 CL       5.0136    -4.0614   -19.4963 Cl    163 CCL4  -0.0812 
 815 CL       7.7954    -4.0315   -20.0970 Cl    163 CCL4  -0.0812 
 816 CL      -1.3456     0.0358   -19.5259 Cl    164 CCL4  -0.0812 
 817 C       -3.1445    -0.3797   -19.5302 C.3   164 CCL4   0.3246 
 818 CL      -3.3548    -2.0791   -20.1380 Cl    164 CCL4  -0.0812 
 819 CL      -3.9875     0.7419   -20.5813 Cl    164 CCL4  -0.0812 
 820 CL      -3.8154    -0.0968   -17.8656 Cl    164 CCL4  -0.0812 
 821 CL      -9.4288    -2.3055    19.4355 Cl    165 CCL4  -0.0812 
 822 C       -7.9072    -2.0164    18.5776 C.3   165 CCL4   0.3246 
 823 CL      -7.5710    -0.2445    19.0167 Cl    165 CCL4  -0.0812 
 824 CL      -8.1416    -2.0842    16.8272 Cl    165 CCL4  -0.0812 
 825 CL      -6.5470    -3.1023    18.9607 Cl    165 CCL4  -0.0812 
 826 CL      -7.4217   -14.3149    -0.0364 Cl    166 CCL4  -0.0812 
 827 C       -7.7277   -14.1647    -1.7416 C.3   166 CCL4   0.3246 
 828 CL      -6.6573   -12.9965    -2.5246 Cl    166 CCL4  -0.0812 
 829 CL      -9.3981   -13.6918    -2.0895 Cl    166 CCL4  -0.0812 
 830 CL      -7.5630   -15.7869    -2.5577 Cl    166 CCL4  -0.0812 
 831 CL     -14.5231   -12.7246     0.3523 Cl    167 CCL4  -0.0812 
 832 C      -13.8208   -13.7224    -1.0036 C.3   167 CCL4   0.3246 
 833 CL     -12.4371   -14.5584    -0.3293 Cl    167 CCL4  -0.0812 
 834 CL     -13.2659   -12.5452    -2.1738 Cl    167 CCL4  -0.0812 
 835 CL     -14.9372   -14.8902    -1.6149 Cl    167 CCL4  -0.0812 
 836 CL      -3.2450   -17.0231    18.5967 Cl    168 CCL4  -0.0812 
 837 C       -3.4926   -18.5938    19.3624 C.3   168 CCL4   0.3246 
 838 CL      -4.8713   -18.5577    20.4459 Cl    168 CCL4  -0.0812 
 839 CL      -2.0355   -19.0799    20.3076 Cl    168 CCL4  -0.0812 
 840 CL      -3.7153   -19.8739    18.0834 Cl    168 CCL4  -0.0812 
 841 CL      -6.4478   -12.4086    18.6487 Cl    169 CCL4  -0.0812 
 842 C       -6.8338   -13.8638    19.6967 C.3   169 CCL4   0.3246 
 843 CL      -8.5374   -13.8385    20.3072 Cl    169 CCL4  -0.0812 
 844 CL      -5.7075   -14.0083    21.0953 Cl    169 CCL4  -0.0812 
 845 CL      -6.4506   -15.2672    18.6677 Cl    169 CCL4  -0.0812 
 846 CL      -8.5966   -19.4778   -18.4349 Cl    170 CCL4  -0.0812 
 847 C       -9.6108   -18.2384   -17.7110 C.3   170 CCL4   0.3246 
 848 CL      -9.2814   -16.7134   -18.5546 Cl    170 CCL4  -0.0812 
 849 CL      -8.9899   -17.9945   -15.9929 Cl    170 CCL4  -0.0812 
 850 CL     -11.2862   -18.7649   -17.7383 Cl    170 CCL4  -0.0812 
 851 CL      10.6311   -14.0497   -14.5211 Cl    171 CCL4  -0.0812 
 852 C       10.3018   -15.6772   -15.1778 C.3   171 CCL4   0.3246 
 853 CL       9.0509   -16.5161   -14.2914 Cl    171 CCL4  -0.0812 
 854 CL      11.6942   -16.6801   -14.9440 Cl    171 CCL4  -0.0812 
 855 CL       9.8890   -15.4285   -16.9285 Cl    171 CCL4  -0.0812 
 856 CL      10.9160    17.9300   -14.7223 Cl    172 CCL4  -0.0812 
 857 C        9.4505    18.8059   -15.2470 C.3   172 CCL4   0.3246 
 858 CL      10.0155    20.0496   -16.3998 Cl    172 CCL4  -0.0812 
 859 CL       8.5583    19.5547   -13.9483 Cl    172 CCL4  -0.0812 
 860 CL       8.3491    17.7196   -16.2323 Cl    172 CCL4  -0.0812 
 861 CL       8.8412   -14.8535    -9.7254 Cl    173 CCL4  -0.0812 
 862 C        8.0846   -16.4214    -9.2454 C.3   173 CCL4   0.3246 
 863 CL       7.9765   -17.4749   -10.7008 Cl    173 CCL4  -0.0812 
 864 CL       6.4046   -16.0789    -8.6111 Cl    173 CCL4  -0.0812 
 865 CL       9.0309   -17.3259    -7.9476 Cl    173 CCL4  -0.0812 
 866 CL     -12.4842    -0.3722   -16.0661 Cl    174 CCL4  -0.0812 
 867 C      -13.8412    -1.1350   -15.1767 C.3   174 CCL4   0.3246 
 868 CL     -15.3600    -0.5524   -15.9390 Cl    174 CCL4  -0.0812 
 869 CL     -13.8321    -0.5436   -13.5261 Cl    174 CCL4  -0.0812 
 870 CL     -13.5728    -2.8724   -15.2718 Cl    174 CCL4  -0.0812 
 871 CL       8.4432   -20.4248    20.1677 Cl    175 CCL4  -0.0812 
 872 C        8.9873   -18.9157    19.4398 C.3   175 CCL4   0.3246 
 873 CL      10.2583   -18.1350    20.4834 Cl    175 CCL4  -0.0812 
 874 CL       7.6752   -17.6731    19.3447 Cl    175 CCL4  -0.0812 
 875 CL       9.6555   -19.0266    17.8724 Cl    175 CCL4  -0.0812 
 876 CL      -9.9844    19.9938    -7.0505 Cl    176 CCL4  -0.0812 
 877 C       -9.5122    18.5278    -8.0403 C.3   176 CCL4   0.3246 
 878 CL     -11.0562    18.0111    -8.7931 Cl    176 CCL4  -0.0812 
 879 CL      -8.7347    17.2076    -7.0613 Cl    176 CCL4  -0.0812 
 880 CL      -8.4328    19.1128    -9.2975 Cl    176 CCL4  -0.0812 
 881 CL      -3.0224   -14.7061    -4.9643 Cl    177 CCL4  -0.0812 
 882 C       -2.2783   -15.4048    -3.6106 C.3   177 CCL4   0.3246 
 883 CL      -3.3016   -15.3715    -2.1609 Cl    177 CCL4  -0.0812 
 884 CL      -0.9034   -14.3848    -3.1042 Cl    177 CCL4  -0.0812 
 885 CL      -1.7291   -17.0341    -3.9419 Cl    177 CCL4  -0.0812 
 886 CL      11.1567    19.4443    -8.7163 Cl    178 CCL4  -0.0812 
 887 C       10.1940    18.0657    -9.4363 C.3   178 CCL4   0.3246 
 888 CL      11.0370    17.4221   -10.8902 Cl    178 CCL4  -0.0812 
 889 CL       8.6261    18.6973    -9.9152 Cl    178 CCL4  -0.0812 
 890 CL       9.8728    16.6824    -8.2746 Cl    178 CCL4  -0.0812 
 891 CL      -4.2252   -16.4445   -10.8910 Cl    179 CCL4  -0.0812 
 892 C       -3.3243   -15.3718    -9.8172 C.3   179 CCL4   0.3246 
 893 CL      -2.1644   -14.2844   -10.6257 Cl    179 CCL4  -0.0812 
 894 CL      -2.3523   -16.4564    -8.5693 Cl    179 CCL4  -0.0812 
 895 CL      -4.4303   -14.4063    -8.8376 Cl    179 CCL4  -0.0812 
 896 CL      -5.3024   -13.1249   -12.0726 Cl    180 CCL4  -0.0812 
 897 C       -6.8764   -12.8472   -11.2031 C.3   180 CCL4   0.3246 
 898 CL      -6.6032   -11.8992    -9.7707 Cl    180 CCL4  -0.0812 
 899 CL      -7.5778   -14.4645   -10.7576 Cl    180 CCL4  -0.0812 
 900 CL      -7.9063   -11.9652   -12.2548 Cl    180 CCL4  -0.0812 
 901 CL      -0.2938    19.0291   -12.5096 Cl    181 CCL4  -0.0812 
 902 C       -1.8322    19.4535   -11.9210 C.3   181 CCL4   0.3246 
 903 CL      -2.9140    19.7724   -13.3636 Cl    181 CCL4  -0.0812 
 904 CL      -1.7425    20.9035   -10.9834 Cl    181 CCL4  -0.0812 
 905 CL      -2.5670    18.1706   -10.9937 Cl    181 CCL4  -0.0812 
 906 CL      -6.9947    -3.4212    -6.1007 Cl    182 CCL4  -0.0812 
 907 C       -7.5838    -1.8113    -5.3827 C.3   182 CCL4   0.3246 
 908 CL      -7.4533    -2.0571    -3.6371 Cl    182 CCL4  -0.0812 
 909 CL      -9.1645    -1.2327    -5.7783 Cl    182 CCL4  -0.0812 
 910 CL      -6.3557    -0.5254    -5.8042 Cl    182 CCL4  -0.0812 
 911 CL      -3.4770    20.3787    -6.0993 Cl    183 CCL4  -0.0812 
 912 C       -4.5074    19.3972    -7.0614 C.3   183 CCL4   0.3246 
 913 CL      -4.9860    20.2683    -8.5335 Cl    183 CCL4  -0.0812 
 914 CL      -5.9178    19.0404    -6.0915 Cl    183 CCL4  -0.0812 
 915 CL      -3.7080    17.9142    -7.4752 Cl    183 CCL4  -0.0812 
 916 CL       1.0823   -12.0321    -8.2405 Cl    184 CCL4  -0.0812 
 917 C        1.6796   -13.2345    -7.1339 C.3   184 CCL4   0.3246 
 918 CL       0.9215   -14.8041    -7.5381 Cl    184 CCL4  -0.0812 
 919 CL       1.2179   -12.8273    -5.4313 Cl    184 CCL4  -0.0812 
 920 CL       3.4433   -13.4443    -7.1469 Cl    184 CCL4  -0.0812 
 921 CL      -9.2089   -16.6990    -5.3258 Cl    185 CCL4  -0.0812 
 922 C       -7.7239   -16.4116    -6.2690 C.3   185 CCL4   0.3246 
 923 CL      -8.0949   -16.7458    -7.9544 Cl    185 CCL4  -0.0812 
 924 CL      -6.5214   -17.4785    -5.6193 Cl    185 CCL4  -0.0812 
 925 CL      -7.2978   -14.6444    -6.1631 Cl    185 CCL4  -0.0812 
 926 CL       7.1722   -12.1873    -5.8347 Cl    186 CCL4  -0.0812 
 927 C        8.5214   -12.9931    -4.9347 C.3   186 CCL4   0.3246 
 928 CL      10.1191   -12.6026    -5.7574 Cl    186 CCL4  -0.0812 
 929 CL       8.2702   -14.7516    -4.9975 Cl    186 CCL4  -0.0812 
 930 CL       8.5277   -12.3071    -3.2699 Cl    186 CCL4  -0.0812 
 931 CL     -10.9070   -16.9765   -12.0509 Cl    187 CCL4  -0.0812 
 932 C      -12.0022   -17.9388   -11.1159 C.3   187 CCL4   0.3246 
 933 CL     -13.6886   -17.6462   -11.5814 Cl    187 CCL4  -0.0812 
 934 CL     -11.9255   -17.3779    -9.4812 Cl    187 CCL4  -0.0812 
 935 CL     -11.5846   -19.6516   -11.2262 Cl    187 CCL4  -0.0812 
 936 CL       9.6768    -3.7273    -8.9631 Cl    188 CCL4  -0.0812 
 937 C       10.1228    -2.8806   -10.4533 C.3   188 CCL4   0.3246 
 938 CL      10.7993    -1.2873    -9.9606 Cl    188 CCL4  -0.0812 
 939 CL       8.5275    -2.6237   -11.2031 Cl    188 CCL4  -0.0812 
 940 CL      11.1944    -3.7250   -11.6124 Cl    188 CCL4  -0.0812 
 941 CL      -7.7137    17.6421    -3.7127 Cl    189 CCL4  -0.0812 
 942 C       -8.9957    18.7307    -3.0839 C.3   189 CCL4   0.3246 
 943 CL      -9.2227    18.1966    -1.3737 Cl    189 CCL4  -0.0812 
 944 CL     -10.4434    18.6061    -4.0530 Cl    189 CCL4  -0.0812 
 945 CL      -8.4709    20.4337    -3.1097 Cl    189 CCL4  -0.0812 
 946 CL      -5.2597    -8.7626   -17.6388 Cl    190 CCL4  -0.0812 
 947 C       -5.9501    -9.8927   -16.4424 C.3   190 CCL4   0.3246 
 948 CL      -7.0861   -10.9881   -17.4412 Cl    190 CCL4  -0.0812 
 949 CL      -6.9029    -8.8439   -15.2914 Cl    190 CCL4  -0.0812 
 950 CL      -4.7813   -10.9618   -15.6780 Cl    190 CCL4  -0.0812 
 951 CL      -5.9560    -4.7603   -10.2572 Cl    191 CCL4  -0.0812 
 952 C       -6.3441    -5.0758   -12.0141 C.3   191 CCL4   0.3246 
 953 CL      -7.5431    -6.4972   -12.0308 Cl    191 CCL4  -0.0812 
 954 CL      -4.8009    -5.6630   -12.7770 Cl    191 CCL4  -0.0812 
 955 CL      -6.9881    -3.6945   -12.7638 Cl    191 CCL4  -0.0812 
 956 CL      -9.8698    -6.0171   -14.8413 Cl    192 CCL4  -0.0812 
 957 C      -10.9944    -6.8081   -13.7449 C.3   192 CCL4   0.3246 
 958 CL     -10.5954    -8.4894   -13.4887 Cl    192 CCL4  -0.0812 
 959 CL     -12.6386    -6.6857   -14.4914 Cl    192 CCL4  -0.0812 
 960 CL     -11.0033    -6.0483   -12.1206 Cl    192 CCL4  -0.0812 
 961 CL      10.1664    -9.1283    -4.0514 Cl    193 CCL4  -0.0812 
 962 C       10.0842    -8.3667    -2.4973 C.3   193 CCL4   0.3246 
 963 CL       9.2645    -9.4292    -1.2944 Cl    193 CCL4  -0.0812 
 964 CL       9.2005    -6.8844    -2.6332 Cl    193 CCL4  -0.0812 
 965 CL      11.7489    -8.0793    -1.9015 Cl    193 CCL4  -0.0812 
 966 CL      -5.1423    -5.7849   -19.2040 Cl    194 CCL4  -0.0812 
 967 C       -6.1338    -4.9547   -17.9250 C.3   194 CCL4   0.3246 
 968 CL      -6.0560    -5.6327   -16.3275 Cl    194 CCL4  -0.0812 
 969 CL      -7.8597    -4.8593   -18.3078 Cl    194 CCL4  -0.0812 
 970 CL      -5.5238    -3.2591   -17.8904 Cl    194 CCL4  -0.0812 
 971 CL     -10.7374    -0.3507   -10.0640 Cl    195 CCL4  -0.0812 
 972 C      -10.1921    -2.0418   -10.3558 C.3   195 CCL4   0.3246 
 973 CL     -11.1522    -3.1406    -9.3785 Cl    195 CCL4  -0.0812 
 974 CL      -8.5274    -2.3169    -9.9553 Cl    195 CCL4  -0.0812 
 975 CL     -10.3836    -2.4744   -12.0340 Cl    195 CCL4  -0.0812 
 976 CL     -10.1772   -10.5719   -19.0895 Cl    196 CCL4  -0.0812 
 977 C       -9.9165    -8.8594   -19.1846 C.3   196 CCL4   0.3246 
 978 CL     -11.0385    -8.0046   -20.1488 Cl    196 CCL4  -0.0812 
 979 CL      -8.1931    -8.6618   -19.9559 Cl    196 CCL4  -0.0812 
 980 CL      -9.6777    -8.1775   -17.5260 Cl    196 CCL4  -0.0812 
 981 CL       8.4111   -12.2718   -11.8103 Cl    197 CCL4  -0.0812 
 982 C        7.4489   -11.4808   -10.5487 C.3   197 CCL4   0.3246 
 983 CL       8.4803   -10.8653    -9.2465 Cl    197 CCL4  -0.0812 
 984 CL       6.2335   -12.4626    -9.8111 Cl    197 CCL4  -0.0812 
 985 CL       6.7392    -9.8801   -11.3059 Cl    197 CCL4  -0.0812 
 986 CL       9.1810    -6.7509   -13.1302 Cl    198 CCL4  -0.0812 
 987 C        8.3676    -6.1268   -14.4861 C.3   198 CCL4   0.3246 
 988 CL       6.7872    -6.9465   -14.5922 Cl    198 CCL4  -0.0812 
 989 CL       9.0961    -6.4445   -15.9870 Cl    198 CCL4  -0.0812 
 990 CL       8.1486    -4.4274   -14.1895 Cl    198 CCL4  -0.0812 
 991 CL      -1.7156    -5.7253    -5.8263 Cl    199 CCL4  -0.0812 
 992 C       -3.3004    -5.7350    -5.0251 C.3   199 CCL4   0.3246 
 993 CL      -3.4373    -6.9445    -3.7085 Cl    199 CCL4  -0.0812 
 994 CL      -4.6468    -5.9713    -6.2639 Cl    199 CCL4  -0.0812 
 995 CL      -3.6588    -4.0521    -4.4717 Cl    199 CCL4  -0.0812 
 996 CL      -4.3714    -7.9232    -9.7774 Cl    200 CCL4  -0.0812 
 997 C       -3.7137    -9.1364   -10.9024 C.3   200 CCL4   0.3246 
 998 CL      -4.8561    -9.5485   -12.1520 Cl    200 CCL4  -0.0812 
 999 CL      -3.2194   -10.5515   -10.0691 Cl    200 CCL4  -0.0812 
1000 CL      -2.3740    -8.4260   -11.7818 Cl    200 CCL4  -0.0812 
1001 CL       0.1501    -6.0559   -11.3082 Cl    201 CCL4  -0.0812 
1002 C       -0.3451    -6.2591    -9.5038 C.3   201 CCL4   0.3246 
1003 CL      -2.0225    -5.5606    -9.2088 Cl    201 CCL4  -0.0812 
1004 CL       0.8814    -5.3136    -8.5206 Cl    201 CCL4  -0.0812 
1005 CL      -0.2501    -7.9618    -9.0238 Cl    201 CCL4  -0.0812 
1006 CL      -8.8525   -11.0399    -4.6962 Cl    202 CCL4  -0.0812 
1007 C      -10.3765   -11.4494    -5.4755 C.3   202 CCL4   0.3246 
1008 CL     -11.7698   -10.7047    -4.7530 Cl    202 CCL4  -0.0812 
1009 CL     -10.5349   -13.2309    -5.5002 Cl    202 CCL4  -0.0812 
1010 CL     -10.2935   -10.9495    -7.1360 Cl    202 CCL4  -0.0812 
1011 CL      -8.9605    -5.8278    -8.2702 Cl    203 CCL4  -0.0812 
1012 C       -9.3190    -7.6121    -8.2548 C.3   203 CCL4   0.3246 
1013 CL     -10.4662    -8.1857    -9.4339 Cl    203 CCL4  -0.0812 
1014 CL     -10.0826    -7.8459    -6.6031 Cl    203 CCL4  -0.0812 
1015 CL      -7.8314    -8.6205    -8.3120 Cl    203 CCL4  -0.0812 
1016 CL       6.6963    -3.8691    -6.3769 Cl    204 CCL4  -0.0812 
1017 C        7.6776    -4.6933    -5.1856 C.3   204 CCL4   0.3246 
1018 CL       8.2619    -6.1984    -5.9162 Cl    204 CCL4  -0.0812 
1019 CL       6.7373    -4.9937    -3.8349 Cl    204 CCL4  -0.0812 
1020 CL       9.1345    -3.6508    -4.8189 Cl    204 CCL4  -0.0812 
1021 CL      -2.6334    -0.1444    -8.7266 Cl    205 CCL4  -0.0812 
1022 C       -2.5159    -1.9050    -8.8760 C.3   205 CCL4   0.3246 
1023 CL      -0.9066    -2.4189    -8.4547 Cl    205 CCL4  -0.0812 
1024 CL      -2.5965    -2.3576   -10.6082 Cl    205 CCL4  -0.0812 
1025 CL      -3.6753    -2.6827    -7.8278 Cl    205 CCL4  -0.0812 
1026 CL     -12.4201    -3.3096    -5.8495 Cl    206 CCL4  -0.0812 
1027 C      -11.8812    -4.3823    -4.4453 C.3   206 CCL4   0.3246 
1028 CL     -12.7125    -5.9253    -4.5296 Cl    206 CCL4  -0.0812 
1029 CL     -12.3659    -3.5711    -2.9696 Cl    206 CCL4  -0.0812 
1030 CL     -10.0649    -4.6030    -4.6593 Cl    206 CCL4  -0.0812 
1031 CL      -7.0134    -8.1629    -4.7201 Cl    207 CCL4  -0.0812 
1032 C       -7.4624    -7.6733    -3.0725 C.3   207 CCL4   0.3246 
1033 CL      -6.7855    -9.0887    -2.1381 Cl    207 CCL4  -0.0812 
1034 CL      -9.2406    -7.6063    -2.8495 Cl    207 CCL4  -0.0812 
1035 CL      -6.7845    -6.1117    -2.6258 Cl    207 CCL4  -0.0812 
1036 CL      -2.7702   -11.2378    -4.1533 Cl    208 CCL4  -0.0812 
1037 C       -3.4041   -11.1052    -5.8122 C.3   208 CCL4   0.3246 
1038 CL      -2.3947   -11.9186    -6.9988 Cl    208 CCL4  -0.0812 
1039 CL      -3.6149    -9.3081    -6.2671 Cl    208 CCL4  -0.0812 
1040 CL      -4.9652   -11.8559    -5.9126 Cl    208 CCL4  -0.0812 
1041 CL       3.6878    -5.7110   -10.5518 Cl    209 CCL4  -0.0812 
1042 C        5.3217    -5.3207    -9.9679 C.3   209 CCL4   0.3246 
1043 CL       5.4381    -3.5486    -9.6605 Cl    209 CCL4  -0.0812 
1044 CL       6.5443    -5.8318   -11.1847 Cl    209 CCL4  -0.0812 
1045 CL       5.6095    -6.0511    -8.3840 Cl    209 CCL4  -0.0812 
1046 CL     -13.9366    -8.7332    -7.4744 Cl    210 CCL4  -0.0812 
1047 C      -14.0275    -7.8705    -9.0316 C.3   210 CCL4   0.3246 
1048 CL     -13.1992    -6.2296    -9.0355 Cl    210 CCL4  -0.0812 
1049 CL     -15.7546    -7.3554    -9.2059 Cl    210 CCL4  -0.0812 
1050 CL     -13.4301    -8.8364   -10.4322 Cl    210 CCL4  -0.0812 
1051 CL     -12.8958   -12.2146    -8.7045 Cl    211 CCL4  -0.0812 
1052 C      -11.8120   -12.8127    -9.9735 C.3   211 CCL4   0.3246 
1053 CL     -12.7584   -14.1443   -10.6776 Cl    211 CCL4  -0.0812 
1054 CL     -10.4799   -13.6647    -9.1601 Cl    211 CCL4  -0.0812 
1055 CL     -11.3043   -11.5614   -11.1413 Cl    211 CCL4  -0.0812 
1056 CL       0.4262    -8.7355    -4.5749 Cl    212 CCL4  -0.0812 
1057 C        0.5375    -8.9184    -2.8362 C.3   212 CCL4   0.3246 
1058 CL       2.2186    -8.2382    -2.4033 Cl    212 CCL4  -0.0812 
1059 CL       0.4299   -10.6743    -2.4441 Cl    212 CCL4  -0.0812 
1060 CL      -0.6565    -7.9828    -1.9565 Cl    212 CCL4  -0.0812 
1061 CL       2.6994   -10.6207   -19.1449 Cl    213 CCL4  -0.0812 
1062 C        3.2304    -9.2733   -18.1647 C.3   213 CCL4   0.3246 
1063 CL       2.9835    -7.7063   -19.0625 Cl    213 CCL4  -0.0812 
1064 CL       4.9827    -9.5041   -17.9062 Cl    213 CCL4  -0.0812 
1065 CL       2.2961    -9.2213   -16.5914 Cl    213 CCL4  -0.0812 
1066 CL       0.8656   -16.4274   -16.2506 Cl    214 CCL4  -0.0812 
1067 C        0.3155   -17.7993   -15.2928 C.3   214 CCL4   0.3246 
1068 CL      -0.6710   -17.2475   -13.9275 Cl    214 CCL4  -0.0812 
1069 CL       1.7453   -18.5991   -14.6912 Cl    214 CCL4  -0.0812 
1070 CL      -0.7213   -18.8681   -16.3601 Cl    214 CCL4  -0.0812 
1071 CL       5.9583   -15.3600    -0.9294 Cl    215 CCL4  -0.0812 
1072 C        6.7565   -16.6594    -0.0134 C.3   215 CCL4   0.3246 
1073 CL       5.3807   -17.4953     0.7097 Cl    215 CCL4  -0.0812 
1074 CL       7.7759   -15.8777     1.1354 Cl    215 CCL4  -0.0812 
1075 CL       7.5818   -17.7245    -1.0606 Cl    215 CCL4  -0.0812 
1076 CL       5.7068   -14.3374    19.9471 Cl    216 CCL4  -0.0812 
1077 C        7.1786   -13.3794    19.8427 C.3   216 CCL4   0.3246 
1078 CL       8.6591   -14.3952    19.9774 Cl    216 CCL4  -0.0812 
1079 CL       7.2645   -12.0927    21.0265 Cl    216 CCL4  -0.0812 
1080 CL       7.2992   -12.5490    18.2424 Cl    216 CCL4  -0.0812 
1081 CL       4.7059   -19.6546   -16.2983 Cl    217 CCL4  -0.0812 
1082 C        5.4291   -18.0719   -16.2606 C.3   217 CCL4   0.3246 
1083 CL       5.7615   -17.7054   -14.4729 Cl    217 CCL4  -0.0812 
1084 CL       4.2915   -16.8067   -16.7852 Cl    217 CCL4  -0.0812 
1085 CL       6.9134   -17.8772   -17.1897 Cl    217 CCL4  -0.0812 
1086 CL       6.3321   -10.8711   -14.9865 Cl    218 CCL4  -0.0812 
1087 C        5.7939   -12.6320   -15.0713 C.3   218 CCL4   0.3246 
1088 CL       4.3412   -12.6303   -16.1401 Cl    218 CCL4  -0.0812 
1089 CL       5.4898   -13.2279   -13.4477 Cl    218 CCL4  -0.0812 
1090 CL       7.1531   -13.6205   -15.6744 Cl    218 CCL4  -0.0812 
1091 CL       1.6649   -16.9876   -20.0765 Cl    219 CCL4  -0.0812 
1092 C        2.5325   -18.4723   -20.0214 C.3   219 CCL4   0.3246 
1093 CL       2.0134   -19.7104   -21.2340 Cl    219 CCL4  -0.0812 
1094 CL       2.1774   -19.2781   -18.3372 Cl    219 CCL4  -0.0812 
1095 CL       4.3279   -18.3159   -20.0642 Cl    219 CCL4  -0.0812 
1096 CL       2.0451    -4.4221   -14.4041 Cl    220 CCL4  -0.0812 
1097 C        3.6849    -3.9809   -14.9037 C.3   220 CCL4   0.3246 
1098 CL       4.6211    -3.6178   -13.5284 Cl    220 CCL4  -0.0812 
1099 CL       3.6085    -2.4561   -15.7974 Cl    220 CCL4  -0.0812 
1100 CL       4.2932    -5.3199   -15.8623 Cl    220 CCL4  -0.0812 
1101 CL      -0.5663    -4.4530   -20.3947 Cl    221 CCL4  -0.0812 
1102 C        1.1181    -4.2013   -19.9257 C.3   221 CCL4   0.3246 
1103 CL       1.4178    -4.8218   -18.3079 Cl    221 CCL4  -0.0812 
1104 CL       1.2474    -2.3773   -19.9176 Cl    221 CCL4  -0.0812 
1105 CL       2.1153    -5.0134   -21.2531 Cl    221 CCL4  -0.0812 
1106 CL       4.0971   -16.8928   -10.8523 Cl    222 CCL4  -0.0812 
1107 C        2.8388   -15.8020   -11.4990 C.3   222 CCL4   0.3246 
1108 CL       1.1325   -16.5059   -10.9708 Cl    222 CCL4  -0.0812 
1109 CL       2.8592   -15.7302   -13.2705 Cl    222 CCL4  -0.0812 
1110 CL       2.7675   -14.1965   -10.7146 Cl    222 CCL4  -0.0812 
1111 CL       0.1110   -12.6793   -12.4344 Cl    223 CCL4  -0.0812 
1112 C       -0.5668   -12.3297   -13.9977 C.3   223 CCL4   0.3246 
1113 CL      -1.3852   -13.8271   -14.4292 Cl    223 CCL4  -0.0812 
1114 CL       0.5675   -11.9183   -15.3309 Cl    223 CCL4  -0.0812 
1115 CL      -1.8069   -11.0466   -13.9700 Cl    223 CCL4  -0.0812 
1116 CL       2.4625    20.1500    -9.9599 Cl    224 CCL4  -0.0812 
1117 C        3.9415    19.4664   -10.6494 C.3   224 CCL4   0.3246 
1118 CL       4.1561    20.2291   -12.2884 Cl    224 CCL4  -0.0812 
1119 CL       3.8370    17.7148   -10.7606 Cl    224 CCL4  -0.0812 
1120 CL       5.3533    19.8541    -9.6645 Cl    224 CCL4  -0.0812 
1121 CL       3.9521   -10.9765    -1.1332 Cl    225 CCL4  -0.0812 
1122 C        5.5497   -11.3450    -1.8116 C.3   225 CCL4   0.3246 
1123 CL       6.1976    -9.8473    -2.6667 Cl    225 CCL4  -0.0812 
1124 CL       5.3620   -12.6656    -2.9425 Cl    225 CCL4  -0.0812 
1125 CL       6.7022   -11.8371    -0.4622 Cl    225 CCL4  -0.0812 
1126 CL       0.6812     0.3916   -11.1529 Cl    226 CCL4  -0.0812 
1127 C        1.9514    -0.8537   -11.3036 C.3   226 CCL4   0.3246 
1128 CL       2.9332    -0.8587    -9.8055 Cl    226 CCL4  -0.0812 
1129 CL       2.8057    -0.4682   -12.8810 Cl    226 CCL4  -0.0812 
1130 CL       1.2350    -2.4895   -11.3941 Cl    226 CCL4  -0.0812 
1131 CL       0.5437    -2.8923    -4.9894 Cl    227 CCL4  -0.0812 
1132 C        2.2062    -3.4893    -5.1563 C.3   227 CCL4   0.3246 
1133 CL       2.7875    -2.8318    -6.7390 Cl    227 CCL4  -0.0812 
1134 CL       2.3325    -5.2182    -4.9979 Cl    227 CCL4  -0.0812 
1135 CL       3.1624    -2.7268    -3.7992 Cl    227 CCL4  -0.0812 
1136 CL       4.2923   -18.0105    -2.7255 Cl    228 CCL4  -0.0812 
1137 C        3.2624   -17.2351    -3.9805 C.3   228 CCL4   0.3246 
1138 CL       2.2121   -18.4658    -4.6803 Cl    228 CCL4  -0.0812 
1139 CL       4.2170   -16.4324    -5.2293 Cl    228 CCL4  -0.0812 
1140 CL       2.2316   -16.0384    -3.0267 Cl    228 CCL4  -0.0812 
1141 CL       6.9893    21.5036    -4.6247 Cl    229 CCL4  -0.0812 
1142 C        6.9838    19.8566    -5.0478 C.3   229 CCL4   0.3246 
1143 CL       7.4479    18.9343    -3.5494 Cl    229 CCL4  -0.0812 
1144 CL       8.1378    19.4835    -6.2559 Cl    229 CCL4  -0.0812 
1145 CL       5.3833    19.3619    -5.4611 Cl    229 CCL4  -0.0812 
1146 CL       5.8347    -9.2683    -7.2730 Cl    230 CCL4  -0.0812 
1147 C        4.4878    -8.9260    -6.2413 C.3   230 CCL4   0.3246 
1148 CL       3.1572    -8.2148    -7.1678 Cl    230 CCL4  -0.0812 
1149 CL       4.9933    -7.4909    -5.3068 Cl    230 CCL4  -0.0812 
1150 CL       3.7980   -10.2661    -5.2086 Cl    230 CCL4  -0.0812 
1151 CL      -0.9104   -10.9931    19.1137 Cl    231 CCL4  -0.0812 
1152 C       -1.3357    -9.1953    18.7424 C.3   231 CCL4   0.3246 
1153 CL      -0.4259    -8.0786    19.7534 Cl    231 CCL4  -0.0812 
1154 CL      -3.0701    -8.9745    19.1611 Cl    231 CCL4  -0.0812 
1155 CL      -0.9394    -8.8403    17.0773 Cl    231 CCL4  -0.0812 
1156 CL       3.7115    -8.1844   -12.9381 Cl    232 CCL4  -0.0812 
1157 C        2.6939    -9.4464   -12.1465 C.3   232 CCL4   0.3246 
1158 CL       3.0438    -9.5413   -10.3888 Cl    232 CCL4  -0.0812 
1159 CL       3.0095   -11.0468   -12.8301 Cl    232 CCL4  -0.0812 
1160 CL       0.9300    -9.1442   -12.4835 Cl    232 CCL4  -0.0812 
1161 CL      -2.0186    -6.2359   -17.5559 Cl    233 CCL4  -0.0812 
1162 C       -1.5863    -7.5016   -16.4132 C.3   233 CCL4   0.3246 
1163 CL      -2.8881    -7.4735   -15.2709 Cl    233 CCL4  -0.0812 
1164 CL      -0.0147    -7.1391   -15.5167 Cl    233 CCL4  -0.0812 
1165 CL      -1.3271    -9.0184   -17.1883 Cl    233 CCL4  -0.0812 
1166 CL      -1.7172    -2.8153   -16.3668 Cl    234 CCL4  -0.0812 
1167 C       -2.0921    -2.6083   -14.6844 C.3   234 CCL4   0.3246 
1168 CL      -1.1485    -1.1844   -14.1704 Cl    234 CCL4  -0.0812 
1169 CL      -1.5849    -4.0426   -13.8090 Cl    234 CCL4  -0.0812 
1170 CL      -3.7723    -2.3044   -14.3067 Cl    234 CCL4  -0.0812 
1171 CL     -14.1317   -11.9309     7.6556 Cl    235 CCL4  -0.0812 
1172 C      -14.3660   -10.2894     8.3198 C.3   235 CCL4   0.3246 
1173 CL     -15.8608    -9.6625     7.6116 Cl    235 CCL4  -0.0812 
1174 CL     -12.9431    -9.2329     8.0973 Cl    235 CCL4  -0.0812 
1175 CL     -14.5777   -10.5002    10.0832 Cl    235 CCL4  -0.0812 
1176 CL      -2.4749   -13.8851     4.5148 Cl    236 CCL4  -0.0812 
1177 C       -1.9735   -13.8853     6.1353 C.3   236 CCL4   0.3246 
1178 CL      -2.3100   -15.3809     6.9200 Cl    236 CCL4  -0.0812 
1179 CL      -2.5317   -12.5299     7.0214 Cl    236 CCL4  -0.0812 
1180 CL      -0.1815   -13.7588     6.1130 Cl    236 CCL4  -0.0812 
1181 CL      -4.5901    16.9453    10.3025 Cl    237 CCL4  -0.0812 
1182 C       -5.1880    17.9632     8.9073 C.3   237 CCL4   0.3246 
1183 CL      -6.4265    17.1844     7.8247 Cl    237 CCL4  -0.0812 
1184 CL      -3.8104    18.5240     7.9082 Cl    237 CCL4  -0.0812 
1185 CL      -5.9188    19.5019     9.6478 Cl    237 CCL4  -0.0812 
1186 CL     -10.3218   -11.5786     9.5493 Cl    238 CCL4  -0.0812 
1187 C      -10.0355   -13.3336     9.6765 C.3   238 CCL4   0.3246 
1188 CL     -10.2803   -13.8487    11.3673 Cl    238 CCL4  -0.0812 
1189 CL      -8.4964   -13.9330     9.1130 Cl    238 CCL4  -0.0812 
1190 CL     -11.2896   -14.1467     8.7086 Cl    238 CCL4  -0.0812 
1191 CL      -8.8724    -2.6966     9.7317 Cl    239 CCL4  -0.0812 
1192 C       -8.3382    -1.1352     9.0463 C.3   239 CCL4   0.3246 
1193 CL      -9.2664     0.2799     9.5800 Cl    239 CCL4  -0.0812 
1194 CL      -8.1916    -1.1249     7.2988 Cl    239 CCL4  -0.0812 
1195 CL      -6.7047    -0.8694     9.7034 Cl    239 CCL4  -0.0812 
1196 CL      -4.8760   -14.4963     9.3820 Cl    240 CCL4  -0.0812 
1197 C       -5.3845   -16.2236     9.5982 C.3   240 CCL4   0.3246 
1198 CL      -3.9575   -17.1670    10.0624 Cl    240 CCL4  -0.0812 
1199 CL      -6.0456   -16.9063     8.1458 Cl    240 CCL4  -0.0812 
1200 CL      -6.4802   -16.3389    11.0491 Cl    240 CCL4  -0.0812 
1201 CL      -9.4695    18.2605     9.3274 Cl    241 CCL4  -0.0812 
1202 C      -10.2134    18.7511    10.8786 C.3   241 CCL4   0.3246 
1203 CL      -8.9895    19.2398    11.9514 Cl    241 CCL4  -0.0812 
1204 CL     -11.0903    17.3375    11.4946 Cl    241 CCL4  -0.0812 
1205 CL     -11.4040    20.0938    10.5738 Cl    241 CCL4  -0.0812 
1206 CL       6.6743    -6.0773     6.8411 Cl    242 CCL4  -0.0812 
1207 C        6.6290    -4.4572     6.1588 C.3   242 CCL4   0.3246 
1208 CL       6.8741    -3.1828     7.5160 Cl    242 CCL4  -0.0812 
1209 CL       5.0136    -4.0614     5.5037 Cl    242 CCL4  -0.0812 
1210 CL       7.7954    -4.0315     4.9030 Cl    242 CCL4  -0.0812 
1211 CL      -1.3456     0.0358     5.4741 Cl    243 CCL4  -0.0812 
1212 C       -3.1445    -0.3797     5.4698 C.3   243 CCL4   0.3246 
1213 CL      -3.3548    -2.0791     4.8620 Cl    243 CCL4  -0.0812 
1214 CL      -3.9875     0.7419     4.4187 Cl    243 CCL4  -0.0812 
1215 CL      -3.8154    -0.0968     7.1344 Cl    243 CCL4  -0.0812 
1216 CL      -9.4288    -2.3055     4.4355 Cl    244 CCL4  -0.0812 
1217 C       -7.9072    -2.0164     3.5776 C.3   244 CCL4   0.3246 
1218 CL      -7.5710    -0.2445     4.0167 Cl    244 CCL4  -0.0812 
1219 CL      -8.1416    -2.0842     1.8272 Cl    244 CCL4  -0.0812 
1220 CL      -6.5470    -3.1023     3.9607 Cl    244 CCL4  -0.0812 
1221 CL      -0.4191   -16.2983    -0.1589 Cl    245 CCL4  -0.0812 
1222 C        0.5816   -17.6244     0.5948 C.3   245 CCL4   0.3246 
1223 CL       0.9988   -18.7030    -0.7489 Cl    245 CCL4  -0.0812 
1224 CL      -0.3546   -18.4211     1.8323 Cl    245 CCL4  -0.0812 
1225 CL       2.0092   -16.8953     1.3382 Cl    245 CCL4  -0.0812 
1226 CL      -3.2450   -17.0231     3.5967 Cl    246 CCL4  -0.0812 
1227 C       -3.4926   -18.5938     4.3624 C.3   246 CCL4   0.3246 
1228 CL      -4.8713   -18.5577     5.4459 Cl    246 CCL4  -0.0812 
1229 CL      -2.0355   -19.0799     5.3076 Cl    246 CCL4  -0.0812 
1230 CL      -3.7153   -19.8739     3.0834 Cl    246 CCL4  -0.0812 
1231 CL     -10.0463   -18.7979     0.4155 Cl    247 CCL4  -0.0812 
1232 C       -9.5747   -19.3912     2.0259 C.3   247 CCL4   0.3246 
1233 CL     -10.7548   -18.8087     3.1850 Cl    247 CCL4  -0.0812 
1234 CL      -8.0377   -18.6479     2.4782 Cl    247 CCL4  -0.0812 
1235 CL      -9.3697   -21.1434     1.9515 Cl    247 CCL4  -0.0812 
1236 CL      -6.4478   -12.4086     3.6487 Cl    248 CCL4  -0.0812 
1237 C       -6.8338   -13.8638     4.6967 C.3   248 CCL4   0.3246 
1238 CL      -8.5374   -13.8385     5.3072 Cl    248 CCL4  -0.0812 
1239 CL      -5.7075   -14.0083     6.0953 Cl    248 CCL4  -0.0812 
1240 CL      -6.4506   -15.2672     3.6677 Cl    248 CCL4  -0.0812 
1241 CL     -13.6170   -15.8833     2.8356 Cl    249 CCL4  -0.0812 
1242 C      -12.3717   -14.9496     3.6715 C.3   249 CCL4   0.3246 
1243 CL     -12.5617   -15.4048     5.4688 Cl    249 CCL4  -0.0812 
1244 CL     -12.7456   -13.1551     3.7757 Cl    249 CCL4  -0.0812 
1245 CL     -10.8606   -15.4558     3.0817 Cl    249 CCL4  -0.0812 
1246 CL      -8.5966   -19.4778     6.5651 Cl    250 CCL4  -0.0812 
1247 C       -9.6108   -18.2384     7.2890 C.3   250 CCL4   0.3246 
1248 CL      -9.2814   -16.7134     6.4454 Cl    250 CCL4  -0.0812 
1249 CL      -8.9899   -17.9945     9.0071 Cl    250 CCL4  -0.0812 
1250 CL     -11.2862   -18.7649     7.2617 Cl    250 CCL4  -0.0812 
1251 CL      10.6311   -14.0497    10.4789 Cl    251 CCL4  -0.0812 
1252 C       10.3018   -15.6772     9.8222 C.3   251 CCL4   0.3246 
1253 CL       9.0509   -16.5161    10.7086 Cl    251 CCL4  -0.0812 
1254 CL      11.6942   -16.6801    10.0560 Cl    251 CCL4  -0.0812 
1255 CL       9.8890   -15.4285     8.0715 Cl    251 CCL4  -0.0812 
1256 CL      10.9160    17.9300    10.2777 Cl    252 CCL4  -0.0812 
1257 C        9.4505    18.8059     9.7530 C.3   252 CCL4   0.3246 
1258 CL      10.0155    20.0496     8.6002 Cl    252 CCL4  -0.0812 
1259 CL       8.5583    19.5547    11.0517 Cl    252 CCL4  -0.0812 
1260 CL       8.3491    17.7196     8.7677 Cl    252 CCL4  -0.0812 
1261 CL     -12.4842    -0.3722     8.9339 Cl    253 CCL4  -0.0812 
1262 C      -13.8412    -1.1350     9.8233 C.3   253 CCL4   0.3246 
1263 CL     -15.3600    -0.5524     9.0610 Cl    253 CCL4  -0.0812 
1264 CL     -13.8321    -0.5436    11.4739 Cl    253 CCL4  -0.0812 
1265 CL     -13.5728    -2.8724     9.7282 Cl    253 CCL4  -0.0812 
1266 CL       8.4432   -20.4248     5.1677 Cl    254 CCL4  -0.0812 
1267 C        8.9873   -18.9157     4.4398 C.3   254 CCL4   0.3246 
1268 CL      10.2583   -18.1350     5.4834 Cl    254 CCL4  -0.0812 
1269 CL       7.6752   -17.6731     4.3447 Cl    254 CCL4  -0.0812 
1270 CL       9.6555   -19.0266     2.8724 Cl    254 CCL4  -0.0812 
1271 CL      -9.9844    19.9938    17.9495 Cl    255 CCL4  -0.0812 
1272 C       -9.5122    18.5278    16.9597 C.3   255 CCL4   0.3246 
1273 CL     -11.0562    18.0111    16.2069 Cl    255 CCL4  -0.0812 
1274 CL      -8.7347    17.2076    17.9387 Cl    255 CCL4  -0.0812 
1275 CL      -8.4328    19.1128    15.7025 Cl    255 CCL4  -0.0812 
1276 CL      11.1567    19.4443    16.2837 Cl    256 CCL4  -0.0812 
1277 C       10.1940    18.0657    15.5637 C.3   256 CCL4   0.3246 
1278 CL      11.0370    17.4221    14.1098 Cl    256 CCL4  -0.0812 
1279 CL       8.6261    18.6973    15.0848 Cl    256 CCL4  -0.0812 
1280 CL       9.8728    16.6824    16.7254 Cl    256 CCL4  -0.0812 
1281 CL      -4.2252   -16.4445    14.1090 Cl    257 CCL4  -0.0812 
1282 C       -3.3243   -15.3718    15.1828 C.3   257 CCL4   0.3246 
1283 CL      -2.1644   -14.2844    14.3743 Cl    257 CCL4  -0.0812 
1284 CL      -2.3523   -16.4564    16.4307 Cl    257 CCL4  -0.0812 
1285 CL      -4.4303   -14.4063    16.1624 Cl    257 CCL4  -0.0812 
1286 CL      -5.3024   -13.1249    12.9274 Cl    258 CCL4  -0.0812 
1287 C       -6.8764   -12.8472    13.7969 C.3   258 CCL4   0.3246 
1288 CL      -6.6032   -11.8992    15.2293 Cl    258 CCL4  -0.0812 
1289 CL      -7.5778   -14.4645    14.2424 Cl    258 CCL4  -0.0812 
1290 CL      -7.9063   -11.9652    12.7452 Cl    258 CCL4  -0.0812 
1291 CL      -0.2938    19.0291    12.4904 Cl    259 CCL4  -0.0812 
1292 C       -1.8322    19.4535    13.0790 C.3   259 CCL4   0.3246 
1293 CL      -2.9140    19.7724    11.6364 Cl    259 CCL4  -0.0812 
1294 CL      -1.7425    20.9035    14.0166 Cl    259 CCL4  -0.0812 
1295 CL      -2.5670    18.1706    14.0063 Cl    259 CCL4  -0.0812 
1296 CL     -10.9070   -16.9765    12.9491 Cl    260 CCL4  -0.0812 
1297 C      -12.0022   -17.9388    13.8841 C.3   260 CCL4   0.3246 
1298 CL     -13.6886   -17.6462    13.4186 Cl    260 CCL4  -0.0812 
1299 CL     -11.9255   -17.3779    15.5188 Cl    260 CCL4  -0.0812 
1300 CL     -11.5846   -19.6516    13.7738 Cl    260 CCL4  -0.0812 
1301 CL       9.6768    -3.7273    16.0369 Cl    261 CCL4  -0.0812 
1302 C       10.1228    -2.8806    14.5467 C.3   261 CCL4   0.3246 
1303 CL      10.7993    -1.2873    15.0394 Cl    261 CCL4  -0.0812 
1304 CL       8.5275    -2.6237    13.7969 Cl    261 CCL4  -0.0812 
1305 CL      11.1944    -3.7250    13.3876 Cl    261 CCL4  -0.0812 
1306 CL      -5.2597    -8.7626     7.3612 Cl    262 CCL4  -0.0812 
1307 C       -5.9501    -9.8927     8.5576 C.3   262 CCL4   0.3246 
1308 CL      -7.0861   -10.9881     7.5588 Cl    262 CCL4  -0.0812 
1309 CL      -6.9029    -8.8439     9.7086 Cl    262 CCL4  -0.0812 
1310 CL      -4.7813   -10.9618     9.3220 Cl    262 CCL4  -0.0812 
1311 CL      -5.9560    -4.7603    14.7428 Cl    263 CCL4  -0.0812 
1312 C       -6.3441    -5.0758    12.9859 C.3   263 CCL4   0.3246 
1313 CL      -7.5431    -6.4972    12.9692 Cl    263 CCL4  -0.0812 
1314 CL      -4.8009    -5.6630    12.2230 Cl    263 CCL4  -0.0812 
1315 CL      -6.9881    -3.6945    12.2362 Cl    263 CCL4  -0.0812 
1316 CL      -9.8698    -6.0171    10.1587 Cl    264 CCL4  -0.0812 
1317 C      -10.9944    -6.8081    11.2551 C.3   264 CCL4   0.3246 
1318 CL     -10.5954    -8.4894    11.5113 Cl    264 CCL4  -0.0812 
1319 CL     -12.6386    -6.6857    10.5086 Cl    264 CCL4  -0.0812 
1320 CL     -11.0033    -6.0483    12.8794 Cl    264 CCL4  -0.0812 
1321 CL       4.7891    -9.4802     3.3294 Cl    265 CCL4  -0.0812 
1322 C        4.7259    -8.0590     2.2557 C.3   265 CCL4   0.3246 
1323 CL       5.7188    -8.2336     0.8146 Cl    265 CCL4  -0.0812 
1324 CL       5.4140    -6.7239     3.3217 Cl    265 CCL4  -0.0812 
1325 CL       3.1075    -7.7229     1.8063 Cl    265 CCL4  -0.0812 
1326 CL      -5.1423    -5.7849     5.7960 Cl    266 CCL4  -0.0812 
1327 C       -6.1338    -4.9547     7.0750 C.3   266 CCL4   0.3246 
1328 CL      -6.0560    -5.6327     8.6725 Cl    266 CCL4  -0.0812 
1329 CL      -7.8597    -4.8593     6.6922 Cl    266 CCL4  -0.0812 
1330 CL      -5.5238    -3.2591     7.1096 Cl    266 CCL4  -0.0812 
1331 CL       8.2807    -5.8759     1.9645 Cl    267 CCL4  -0.0812 
1332 C        8.8926    -4.6034     0.9040 C.3   267 CCL4   0.3246 
1333 CL      10.3961    -5.1395     0.1249 Cl    267 CCL4  -0.0812 
1334 CL       9.3104    -3.0743     1.7428 Cl    267 CCL4  -0.0812 
1335 CL       7.6796    -4.3327    -0.3766 Cl    267 CCL4  -0.0812 
1336 CL      -3.6917    -7.3323     0.3839 Cl    268 CCL4  -0.0812 
1337 C       -4.3290    -6.2438     1.6726 C.3   268 CCL4   0.3246 
1338 CL      -5.6514    -6.9656     2.6552 Cl    268 CCL4  -0.0812 
1339 CL      -4.8749    -4.7929     0.8454 Cl    268 CCL4  -0.0812 
1340 CL      -2.9728    -5.7126     2.6244 Cl    268 CCL4  -0.0812 
1341 CL      -9.9749   -12.5295     1.6671 Cl    269 CCL4  -0.0812 
1342 C       -9.4626   -11.0776     0.9054 C.3   269 CCL4   0.3246 
1343 CL      -9.6630    -9.7342     1.9870 Cl    269 CCL4  -0.0812 
1344 CL     -10.3080   -10.6677    -0.5688 Cl    269 CCL4  -0.0812 
1345 CL      -7.6762   -11.1126     0.5899 Cl    269 CCL4  -0.0812 
1346 CL      -9.5065    -5.2623     2.4136 Cl    270 CCL4  -0.0812 
1347 C       -9.5610    -5.8386     0.7694 C.3   270 CCL4   0.3246 
1348 CL      -9.4543    -4.5287    -0.4223 Cl    270 CCL4  -0.0812 
1349 CL     -11.1030    -6.5891     0.6258 Cl    270 CCL4  -0.0812 
1350 CL      -8.1684    -6.8704     0.4353 Cl    270 CCL4  -0.0812 
1351 CL     -12.5739    -4.0291     4.1578 Cl    271 CCL4  -0.0812 
1352 C      -12.9763    -4.1566     5.9667 C.3   271 CCL4   0.3246 
1353 CL     -13.7866    -5.7703     6.1532 Cl    271 CCL4  -0.0812 
1354 CL     -14.3003    -2.9970     6.3051 Cl    271 CCL4  -0.0812 
1355 CL     -11.5379    -4.1437     6.9236 Cl    271 CCL4  -0.0812 
1356 CL     -10.1772   -10.5719     5.9105 Cl    272 CCL4  -0.0812 
1357 C       -9.9165    -8.8594     5.8154 C.3   272 CCL4   0.3246 
1358 CL     -11.0385    -8.0046     4.8512 Cl    272 CCL4  -0.0812 
1359 CL      -8.1931    -8.6618     5.0441 Cl    272 CCL4  -0.0812 
1360 CL      -9.6777    -8.1775     7.4740 Cl    272 CCL4  -0.0812 
1361 CL     -14.0393    -9.8399     4.3423 Cl    273 CCL4  -0.0812 
1362 C      -14.3706    -9.0714     2.7691 C.3   273 CCL4   0.3246 
1363 CL     -16.0097    -9.2721     2.2369 Cl    273 CCL4  -0.0812 
1364 CL     -13.3694    -9.7355     1.5159 Cl    273 CCL4  -0.0812 
1365 CL     -14.1454    -7.3441     2.9209 Cl    273 CCL4  -0.0812 
1366 CL       8.4111   -12.2718    13.1897 Cl    274 CCL4  -0.0812 
1367 C        7.4489   -11.4808    14.4513 C.3   274 CCL4   0.3246 
1368 CL       8.4803   -10.8653    15.7535 Cl    274 CCL4  -0.0812 
1369 CL       6.2335   -12.4626    15.1889 Cl    274 CCL4  -0.0812 
1370 CL       6.7392    -9.8801    13.6941 Cl    274 CCL4  -0.0812 
1371 CL       9.1810    -6.7509    11.8698 Cl    275 CCL4  -0.0812 
1372 C        8.3676    -6.1268    10.5139 C.3   275 CCL4   0.3246 
1373 CL       6.7872    -6.9465    10.4078 Cl    275 CCL4  -0.0812 
1374 CL       9.0961    -6.4445     9.0130 Cl    275 CCL4  -0.0812 
1375 CL       8.1486    -4.4274    10.8105 Cl    275 CCL4  -0.0812 
1376 CL      -1.4653   -12.6020     0.9749 Cl    276 CCL4  -0.0812 
1377 C       -3.1669   -12.5439     0.6895 C.3   276 CCL4   0.3246 
1378 CL      -3.8728   -14.0072     1.1484 Cl    276 CCL4  -0.0812 
1379 CL      -3.5027   -12.0934    -1.0504 Cl    276 CCL4  -0.0812 
1380 CL      -3.8217   -11.1756     1.7064 Cl    276 CCL4  -0.0812 
1381 CL      -4.3714    -7.9232    15.2226 Cl    277 CCL4  -0.0812 
1382 C       -3.7137    -9.1364    14.0976 C.3   277 CCL4   0.3246 
1383 CL      -4.8561    -9.5485    12.8480 Cl    277 CCL4  -0.0812 
1384 CL      -3.2194   -10.5515    14.9309 Cl    277 CCL4  -0.0812 
1385 CL      -2.3740    -8.4260    13.2182 Cl    277 CCL4  -0.0812 
1386 CL      -2.6334    -0.1444    16.2734 Cl    278 CCL4  -0.0812 
1387 C       -2.5159    -1.9050    16.1240 C.3   278 CCL4   0.3246 
1388 CL      -0.9066    -2.4189    16.5453 Cl    278 CCL4  -0.0812 
1389 CL      -2.5965    -2.3576    14.3918 Cl    278 CCL4  -0.0812 
1390 CL      -3.6753    -2.6827    17.1722 Cl    278 CCL4  -0.0812 
1391 CL       3.6878    -5.7110    14.4482 Cl    279 CCL4  -0.0812 
1392 C        5.3217    -5.3207    15.0321 C.3   279 CCL4   0.3246 
1393 CL       5.4381    -3.5486    15.3395 Cl    279 CCL4  -0.0812 
1394 CL       6.5443    -5.8318    13.8153 Cl    279 CCL4  -0.0812 
1395 CL       5.6095    -6.0511    16.6160 Cl    279 CCL4  -0.0812 
1396 CL     -13.9366    -8.7332    17.5256 Cl    280 CCL4  -0.0812 
1397 C      -14.0275    -7.8705    15.9684 C.3   280 CCL4   0.3246 
1398 CL     -13.1992    -6.2296    15.9645 Cl    280 CCL4  -0.0812 
1399 CL     -15.7546    -7.3554    15.7941 Cl    280 CCL4  -0.0812 
1400 CL     -13.4301    -8.8364    14.5678 Cl    280 CCL4  -0.0812 
1401 CL     -12.8958   -12.2146    16.2955 Cl    281 CCL4  -0.0812 
1402 C      -11.8120   -12.8127    15.0265 C.3   281 CCL4   0.3246 
1403 CL     -12.7584   -14.1443    14.3224 Cl    281 CCL4  -0.0812 
1404 CL     -10.4799   -13.6647    15.8399 Cl    281 CCL4  -0.0812 
1405 CL     -11.3043   -11.5614    13.8587 Cl    281 CCL4  -0.0812 
1406 CL       2.6994   -10.6207     5.8551 Cl    282 CCL4  -0.0812 
1407 C        3.2304    -9.2733     6.8353 C.3   282 CCL4   0.3246 
1408 CL       2.9835    -7.7063     5.9375 Cl    282 CCL4  -0.0812 
1409 CL       4.9827    -9.5041     7.0938 Cl    282 CCL4  -0.0812 
1410 CL       2.2961    -9.2213     8.4086 Cl    282 CCL4  -0.0812 
1411 CL       0.8656   -16.4274     8.7494 Cl    283 CCL4  -0.0812 
1412 C        0.3155   -17.7993     9.7072 C.3   283 CCL4   0.3246 
1413 CL      -0.6710   -17.2475    11.0725 Cl    283 CCL4  -0.0812 
1414 CL       1.7453   -18.5991    10.3088 Cl    283 CCL4  -0.0812 
1415 CL      -0.7213   -18.8681     8.6399 Cl    283 CCL4  -0.0812 
1416 CL       5.7068   -14.3374     4.9471 Cl    284 CCL4  -0.0812 
1417 C        7.1786   -13.3794     4.8427 C.3   284 CCL4   0.3246 
1418 CL       8.6591   -14.3952     4.9774 Cl    284 CCL4  -0.0812 
1419 CL       7.2645   -12.0927     6.0265 Cl    284 CCL4  -0.0812 
1420 CL       7.2992   -12.5490     3.2424 Cl    284 CCL4  -0.0812 
1421 CL       4.7059   -19.6546     8.7017 Cl    285 CCL4  -0.0812 
1422 C        5.4291   -18.0719     8.7394 C.3   285 CCL4   0.3246 
1423 CL       5.7615   -17.7054    10.5271 Cl    285 CCL4  -0.0812 
1424 CL       4.2915   -16.8067     8.2148 Cl    285 CCL4  -0.0812 
1425 CL       6.9134   -17.8772     7.8103 Cl    285 CCL4  -0.0812 
1426 CL       6.3321   -10.8711    10.0135 Cl    286 CCL4  -0.0812 
1427 C        5.7939   -12.6320     9.9287 C.3   286 CCL4   0.3246 
1428 CL       4.3412   -12.6303     8.8599 Cl    286 CCL4  -0.0812 
1429 CL       5.4898   -13.2279    11.5523 Cl    286 CCL4  -0.0812 
1430 CL       7.1531   -13.6205     9.3256 Cl    286 CCL4  -0.0812 
1431 CL       6.3797    19.4463     1.9314 Cl    287 CCL4  -0.0812 
1432 C        5.1684    18.3739     1.0135 C.3   287 CCL4   0.3246 
1433 CL       4.9275    16.8691     1.9512 Cl    287 CCL4  -0.0812 
1434 CL       5.8887    17.9868    -0.5999 Cl    287 CCL4  -0.0812 
1435 CL       3.6123    19.2185     0.9910 Cl    287 CCL4  -0.0812 
1436 CL       1.6649   -16.9876     4.9235 Cl    288 CCL4  -0.0812 
1437 C        2.5325   -18.4723     4.9786 C.3   288 CCL4   0.3246 
1438 CL       2.0134   -19.7104     3.7660 Cl    288 CCL4  -0.0812 
1439 CL       2.1774   -19.2781     6.6628 Cl    288 CCL4  -0.0812 
1440 CL       4.3279   -18.3159     4.9358 Cl    288 CCL4  -0.0812 
1441 CL       2.0451    -4.4221    10.5959 Cl    289 CCL4  -0.0812 
1442 C        3.6849    -3.9809    10.0963 C.3   289 CCL4   0.3246 
1443 CL       4.6211    -3.6178    11.4716 Cl    289 CCL4  -0.0812 
1444 CL       3.6085    -2.4561     9.2026 Cl    289 CCL4  -0.0812 
1445 CL       4.2932    -5.3199     9.1377 Cl    289 CCL4  -0.0812 
1446 CL       4.0030   -13.1664     1.9804 Cl    290 CCL4  -0.0812 
1447 C        2.3182   -12.8598     1.5368 C.3   290 CCL4   0.3246 
1448 CL       1.2902   -13.6737     2.7260 Cl    290 CCL4  -0.0812 
1449 CL       1.9021   -13.4575    -0.1056 Cl    290 CCL4  -0.0812 
1450 CL       1.7854   -11.1672     1.6356 Cl    290 CCL4  -0.0812 
1451 CL      -0.5663    -4.4530     4.6053 Cl    291 CCL4  -0.0812 
1452 C        1.1181    -4.2013     5.0743 C.3   291 CCL4   0.3246 
1453 CL       1.4178    -4.8218     6.6921 Cl    291 CCL4  -0.0812 
1454 CL       1.2474    -2.3773     5.0824 Cl    291 CCL4  -0.0812 
1455 CL       2.1153    -5.0134     3.7469 Cl    291 CCL4  -0.0812 
1456 CL       4.0971   -16.8928    14.1477 Cl    292 CCL4  -0.0812 
1457 C        2.8388   -15.8020    13.5010 C.3   292 CCL4   0.3246 
1458 CL       1.1325   -16.5059    14.0292 Cl    292 CCL4  -0.0812 
1459 CL       2.8592   -15.7302    11.7295 Cl    292 CCL4  -0.0812 
1460 CL       2.7675   -14.1965    14.2854 Cl    292 CCL4  -0.0812 
1461 CL       0.1110   -12.6793    12.5656 Cl    293 CCL4  -0.0812 
1462 C       -0.5668   -12.3297    11.0023 C.3   293 CCL4   0.3246 
1463 CL      -1.3852   -13.8271    10.5708 Cl    293 CCL4  -0.0812 
1464 CL       0.5675   -11.9183     9.6691 Cl    293 CCL4  -0.0812 
1465 CL      -1.8069   -11.0466    11.0300 Cl    293 CCL4  -0.0812 
1466 CL       2.4625    20.1500    15.0401 Cl    294 CCL4  -0.0812 
1467 C        3.9415    19.4664    14.3506 C.3   294 CCL4   0.3246 
1468 CL       4.1561    20.2291    12.7116 Cl    294 CCL4  -0.0812 
1469 CL       3.8370    17.7148    14.2394 Cl    294 CCL4  -0.0812 
1470 CL       5.3533    19.8541    15.3355 Cl    294 CCL4  -0.0812 
1471 CL       0.6812     0.3916    13.8471 Cl    295 CCL4  -0.0812 
1472 C        1.9514    -0.8537    13.6964 C.3   295 CCL4   0.3246 
1473 CL       2.9332    -0.8587    15.1945 Cl    295 CCL4  -0.0812 
1474 CL       2.8057    -0.4682    12.1190 Cl    295 CCL4  -0.0812 
1475 CL       1.2350    -2.4895    13.6059 Cl    295 CCL4  -0.0812 
1476 CL      -0.9104   -10.9931     4.1137 Cl    296 CCL4  -0.0812 
1477 C       -1.3357    -9.1953     3.7424 C.3   296 CCL4   0.3246 
1478 CL      -0.4259    -8.0786     4.7534 Cl    296 CCL4  -0.0812 
1479 CL      -3.0701    -8.9745     4.1611 Cl    296 CCL4  -0.0812 
1480 CL      -0.9394    -8.8403     2.0773 Cl    296 CCL4  -0.0812 
1481 CL       3.7115    -8.1844    12.0619 Cl    297 CCL4  -0.0812 
1482 C        2.6939    -9.4464    12.8535 C.3   297 CCL4   0.3246 
1483 CL       3.0438    -9.5413    14.6112 Cl    297 CCL4  -0.0812 
1484 CL       3.0095   -11.0468    12.1699 Cl    297 CCL4  -0.0812 
1485 CL       0.9300    -9.1442    12.5165 Cl    297 CCL4  -0.0812 
1486 CL      -2.0186    -6.2359     7.4441 Cl    298 CCL4  -0.0812 
1487 C       -1.5863    -7.5016     8.5868 C.3   298 CCL4   0.3246 
1488 CL      -2.8881    -7.4735     9.7291 Cl    298 CCL4  -0.0812 
1489 CL      -0.0147    -7.1391     9.4833 Cl    298 CCL4  -0.0812 
1490 CL      -1.3271    -9.0184     7.8117 Cl    298 CCL4  -0.0812 
1491 CL      -1.7172    -2.8153     8.6332 Cl    299 CCL4  -0.0812 
1492 C       -2.0921    -2.6083    10.3156 C.3   299 CCL4   0.3246 
1493 CL      -1.1485    -1.1844    10.8296 Cl    299 CCL4  -0.0812 
1494 CL      -1.5849    -4.0426    11.1910 Cl    299 CCL4  -0.0812 
1495 CL      -3.7723    -2.3044    10.6933 Cl    299 CCL4  -0.0812 
1496 CL     -14.1317    13.0691   -17.3444 Cl    300 CCL4  -0.0812 
1497 C      -14.3660    14.7106   -16.6802 C.3   300 CCL4   0.3246 
1498 CL     -15.8608    15.3375   -17.3884 Cl    300 CCL4  -0.0812 
1499 CL     -12.9431    15.7671   -16.9027 Cl    300 CCL4  -0.0812 
1500 CL     -14.5777    14.4998   -14.9168 Cl    300 CCL4  -0.0812 
1501 CL      -2.4749    11.1149   -20.4852 Cl    301 CCL4  -0.0812 
1502 C       -1.9735    11.1147   -18.8647 C.3   301 CCL4   0.3246 
1503 CL      -2.3100     9.6191   -18.0800 Cl    301 CCL4  -0.0812 
1504 CL      -2.5317    12.4701   -17.9786 Cl    301 CCL4  -0.0812 
1505 CL      -0.1815    11.2412   -18.8870 Cl    301 CCL4  -0.0812 
1506 CL      -4.5901     1.9453   -14.6975 Cl    302 CCL4  -0.0812 
1507 C       -5.1880     2.9632   -16.0927 C.3   302 CCL4   0.3246 
1508 CL      -6.4265     2.1844   -17.1753 Cl    302 CCL4  -0.0812 
1509 CL      -3.8104     3.5240   -17.0918 Cl    302 CCL4  -0.0812 
1510 CL      -5.9188     4.5019   -15.3522 Cl    302 CCL4  -0.0812 
1511 CL     -10.3218    13.4214   -15.4507 Cl    303 CCL4  -0.0812 
1512 C      -10.0355    11.6664   -15.3235 C.3   303 CCL4   0.3246 
1513 CL     -10.2803    11.1513   -13.6327 Cl    303 CCL4  -0.0812 
1514 CL      -8.4964    11.0670   -15.8870 Cl    303 CCL4  -0.0812 
1515 CL     -11.2896    10.8533   -16.2914 Cl    303 CCL4  -0.0812 
1516 CL      -3.2171     5.5735    -0.4372 Cl    304 CCL4  -0.0812 
1517 C       -4.8889     6.1708    -0.5641 C.3   304 CCL4   0.3246 
1518 CL      -5.2447     6.4228    -2.3577 Cl    304 CCL4  -0.0812 
1519 CL      -5.2184     7.6944     0.2756 Cl    304 CCL4  -0.0812 
1520 CL      -6.1227     4.9478    -0.1392 Cl    304 CCL4  -0.0812 
1521 CL      -4.8760    10.5037   -15.6180 Cl    305 CCL4  -0.0812 
1522 C       -5.3845     8.7764   -15.4018 C.3   305 CCL4   0.3246 
1523 CL      -3.9575     7.8330   -14.9376 Cl    305 CCL4  -0.0812 
1524 CL      -6.0456     8.0937   -16.8542 Cl    305 CCL4  -0.0812 
1525 CL      -6.4802     8.6611   -13.9509 Cl    305 CCL4  -0.0812 
1526 CL      -9.9816     2.6261   -19.5145 Cl    306 CCL4  -0.0812 
1527 C      -11.7630     2.1002   -19.3653 C.3   306 CCL4   0.3246 
1528 CL     -11.7784     0.4071   -19.1590 Cl    306 CCL4  -0.0812 
1529 CL     -12.7323     2.5319   -20.8530 Cl    306 CCL4  -0.0812 
1530 CL     -12.4245     3.0300   -17.9424 Cl    306 CCL4  -0.0812 
1531 CL      -5.7924     2.5371   -11.6108 Cl    307 CCL4  -0.0812 
1532 C       -6.2932     0.9013   -11.2554 C.3   307 CCL4   0.3246 
1533 CL      -5.0607    -0.2292   -11.7985 Cl    307 CCL4  -0.0812 
1534 CL      -7.7307     0.4920   -12.2096 Cl    307 CCL4  -0.0812 
1535 CL      -6.6227     0.7384    -9.5689 Cl    307 CCL4  -0.0812 
1536 CL      -9.4695     3.2605   -15.6726 Cl    308 CCL4  -0.0812 
1537 C      -10.2134     3.7511   -14.1214 C.3   308 CCL4   0.3246 
1538 CL      -8.9895     4.2398   -13.0486 Cl    308 CCL4  -0.0812 
1539 CL     -11.0903     2.3375   -13.5054 Cl    308 CCL4  -0.0812 
1540 CL     -11.4040     5.0938   -14.4262 Cl    308 CCL4  -0.0812 
1541 CL       9.1433     1.1671    20.7156 Cl    309 CCL4  -0.0812 
1542 C        8.9747     0.4394    19.1016 C.3   309 CCL4   0.3246 
1543 CL       7.6120    -0.7249    19.0053 Cl    309 CCL4  -0.0812 
1544 CL      10.5681    -0.1929    18.6737 Cl    309 CCL4  -0.0812 
1545 CL       8.6295     1.8263    17.9967 Cl    309 CCL4  -0.0812 
1546 CL      -7.4217    10.6851    -0.0364 Cl    310 CCL4  -0.0812 
1547 C       -7.7277    10.8353    -1.7416 C.3   310 CCL4   0.3246 
1548 CL      -6.6573    12.0035    -2.5246 Cl    310 CCL4  -0.0812 
1549 CL      -9.3981    11.3082    -2.0895 Cl    310 CCL4  -0.0812 
1550 CL      -7.5630     9.2131    -2.5577 Cl    310 CCL4  -0.0812 
1551 CL     -14.5231    12.2754     0.3523 Cl    311 CCL4  -0.0812 
1552 C      -13.8208    11.2776    -1.0036 C.3   311 CCL4   0.3246 
1553 CL     -12.4371    10.4416    -0.3293 Cl    311 CCL4  -0.0812 
1554 CL     -13.2659    12.4548    -2.1738 Cl    311 CCL4  -0.0812 
1555 CL     -14.9372    10.1098    -1.6149 Cl    311 CCL4  -0.0812 
1556 CL      -3.2450     7.9769    18.5967 Cl    312 CCL4  -0.0812 
1557 C       -3.4926     6.4062    19.3624 C.3   312 CCL4   0.3246 
1558 CL      -4.8713     6.4423    20.4459 Cl    312 CCL4  -0.0812 
1559 CL      -2.0355     5.9201    20.3076 Cl    312 CCL4  -0.0812 
1560 CL      -3.7153     5.1261    18.0834 Cl    312 CCL4  -0.0812 
1561 CL      -6.4478    12.5914    18.6487 Cl    313 CCL4  -0.0812 
1562 C       -6.8338    11.1362    19.6967 C.3   313 CCL4   0.3246 
1563 CL      -8.5374    11.1615    20.3072 Cl    313 CCL4  -0.0812 
1564 CL      -5.7075    10.9917    21.0953 Cl    313 CCL4  -0.0812 
1565 CL      -6.4506     9.7328    18.6677 Cl    313 CCL4  -0.0812 
1566 CL      -8.5966     5.5222   -18.4349 Cl    314 CCL4  -0.0812 
1567 C       -9.6108     6.7616   -17.7110 C.3   314 CCL4   0.3246 
1568 CL      -9.2814     8.2866   -18.5546 Cl    314 CCL4  -0.0812 
1569 CL      -8.9899     7.0055   -15.9929 Cl    314 CCL4  -0.0812 
1570 CL     -11.2862     6.2351   -17.7383 Cl    314 CCL4  -0.0812 
1571 CL      10.6311    10.9503   -14.5211 Cl    315 CCL4  -0.0812 
1572 C       10.3018     9.3228   -15.1778 C.3   315 CCL4   0.3246 
1573 CL       9.0509     8.4839   -14.2914 Cl    315 CCL4  -0.0812 
1574 CL      11.6942     8.3199   -14.9440 Cl    315 CCL4  -0.0812 
1575 CL       9.8890     9.5715   -16.9285 Cl    315 CCL4  -0.0812 
1576 CL      10.9160     2.9300   -14.7223 Cl    316 CCL4  -0.0812 
1577 C        9.4505     3.8059   -15.2470 C.3   316 CCL4   0.3246 
1578 CL      10.0155     5.0496   -16.3998 Cl    316 CCL4  -0.0812 
1579 CL       8.5583     4.5547   -13.9483 Cl    316 CCL4  -0.0812 
1580 CL       8.3491     2.7196   -16.2323 Cl    316 CCL4  -0.0812 
1581 CL       8.8412    10.1465    -9.7254 Cl    317 CCL4  -0.0812 
1582 C        8.0846     8.5786    -9.2454 C.3   317 CCL4   0.3246 
1583 CL       7.9765     7.5251   -10.7008 Cl    317 CCL4  -0.0812 
1584 CL       6.4046     8.9211    -8.6111 Cl    317 CCL4  -0.0812 
1585 CL       9.0309     7.6741    -7.9476 Cl    317 CCL4  -0.0812 
1586 CL       8.4432     4.5752    20.1677 Cl    318 CCL4  -0.0812 
1587 C        8.9873     6.0843    19.4398 C.3   318 CCL4   0.3246 
1588 CL      10.2583     6.8650    20.4834 Cl    318 CCL4  -0.0812 
1589 CL       7.6752     7.3269    19.3447 Cl    318 CCL4  -0.0812 
1590 CL       9.6555     5.9734    17.8724 Cl    318 CCL4  -0.0812 
1591 CL      -9.9844     4.9938    -7.0505 Cl    319 CCL4  -0.0812 
1592 C       -9.5122     3.5278    -8.0403 C.3   319 CCL4   0.3246 
1593 CL     -11.0562     3.0111    -8.7931 Cl    319 CCL4  -0.0812 
1594 CL      -8.7347     2.2076    -7.0613 Cl    319 CCL4  -0.0812 
1595 CL      -8.4328     4.1128    -9.2975 Cl    319 CCL4  -0.0812 
1596 CL      -3.0224    10.2939    -4.9643 Cl    320 CCL4  -0.0812 
1597 C       -2.2783     9.5952    -3.6106 C.3   320 CCL4   0.3246 
1598 CL      -3.3016     9.6285    -2.1609 Cl    320 CCL4  -0.0812 
1599 CL      -0.9034    10.6152    -3.1042 Cl    320 CCL4  -0.0812 
1600 CL      -1.7291     7.9659    -3.9419 Cl    320 CCL4  -0.0812 
1601 CL      11.1567     4.4443    -8.7163 Cl    321 CCL4  -0.0812 
1602 C       10.1940     3.0657    -9.4363 C.3   321 CCL4   0.3246 
1603 CL      11.0370     2.4221   -10.8902 Cl    321 CCL4  -0.0812 
1604 CL       8.6261     3.6973    -9.9152 Cl    321 CCL4  -0.0812 
1605 CL       9.8728     1.6824    -8.2746 Cl    321 CCL4  -0.0812 
1606 CL     -14.1343     2.1686    -4.7674 Cl    322 CCL4  -0.0812 
1607 C      -13.3673     0.5890    -5.1913 C.3   322 CCL4   0.3246 
1608 CL     -14.7750    -0.4573    -5.5381 Cl    322 CCL4  -0.0812 
1609 CL     -12.5369     0.1049    -3.7105 Cl    322 CCL4  -0.0812 
1610 CL     -12.2074     0.5231    -6.5122 Cl    322 CCL4  -0.0812 
1611 CL      -4.2252     8.5555   -10.8910 Cl    323 CCL4  -0.0812 
1612 C       -3.3243     9.6282    -9.8172 C.3   323 CCL4   0.3246 
1613 CL      -2.1644    10.7156   -10.6257 Cl    323 CCL4  -0.0812 
1614 CL      -2.3523     8.5436    -8.5693 Cl    323 CCL4  -0.0812 
1615 CL      -4.4303    10.5937    -8.8376 Cl    323 CCL4  -0.0812 
1616 CL      -5.3024    11.8751   -12.0726 Cl    324 CCL4  -0.0812 
1617 C       -6.8764    12.1528   -11.2031 C.3   324 CCL4   0.3246 
1618 CL      -6.6032    13.1008    -9.7707 Cl    324 CCL4  -0.0812 
1619 CL      -7.5778    10.5355   -10.7576 Cl    324 CCL4  -0.0812 
1620 CL      -7.9063    13.0348   -12.2548 Cl    324 CCL4  -0.0812 
1621 CL      -0.2938     4.0291   -12.5096 Cl    325 CCL4  -0.0812 
1622 C       -1.8322     4.4535   -11.9210 C.3   325 CCL4   0.3246 
1623 CL      -2.9140     4.7724   -13.3636 Cl    325 CCL4  -0.0812 
1624 CL      -1.7425     5.9035   -10.9834 Cl    325 CCL4  -0.0812 
1625 CL      -2.5670     3.1706   -10.9937 Cl    325 CCL4  -0.0812 
1626 CL      -3.4770     5.3787    -6.0993 Cl    326 CCL4  -0.0812 
1627 C       -4.5074     4.3972    -7.0614 C.3   326 CCL4   0.3246 
1628 CL      -4.9860     5.2683    -8.5335 Cl    326 CCL4  -0.0812 
1629 CL      -5.9178     4.0404    -6.0915 Cl    326 CCL4  -0.0812 
1630 CL      -3.7080     2.9142    -7.4752 Cl    326 CCL4  -0.0812 
1631 CL       1.0823    12.9679    -8.2405 Cl    327 CCL4  -0.0812 
1632 C        1.6796    11.7655    -7.1339 C.3   327 CCL4   0.3246 
1633 CL       0.9215    10.1959    -7.5381 Cl    327 CCL4  -0.0812 
1634 CL       1.2179    12.1727    -5.4313 Cl    327 CCL4  -0.0812 
1635 CL       3.4433    11.5557    -7.1469 Cl    327 CCL4  -0.0812 
1636 CL      -9.2089     8.3010    -5.3258 Cl    328 CCL4  -0.0812 
1637 C       -7.7239     8.5884    -6.2690 C.3   328 CCL4   0.3246 
1638 CL      -8.0949     8.2542    -7.9544 Cl    328 CCL4  -0.0812 
1639 CL      -6.5214     7.5215    -5.6193 Cl    328 CCL4  -0.0812 
1640 CL      -7.2978    10.3556    -6.1631 Cl    328 CCL4  -0.0812 
1641 CL       7.1722    12.8127    -5.8347 Cl    329 CCL4  -0.0812 
1642 C        8.5214    12.0069    -4.9347 C.3   329 CCL4   0.3246 
1643 CL      10.1191    12.3974    -5.7574 Cl    329 CCL4  -0.0812 
1644 CL       8.2702    10.2484    -4.9975 Cl    329 CCL4  -0.0812 
1645 CL       8.5277    12.6929    -3.2699 Cl    329 CCL4  -0.0812 
1646 CL     -10.9070     8.0235   -12.0509 Cl    330 CCL4  -0.0812 
1647 C      -12.0022     7.0612   -11.1159 C.3   330 CCL4   0.3246 
1648 CL     -13.6886     7.3538   -11.5814 Cl    330 CCL4  -0.0812 
1649 CL     -11.9255     7.6221    -9.4812 Cl    330 CCL4  -0.0812 
1650 CL     -11.5846     5.3484   -11.2262 Cl    330 CCL4  -0.0812 
1651 CL       5.6074     2.0232   -13.4799 Cl    331 CCL4  -0.0812 
1652 C        6.6097     0.5172   -13.2809 C.3   331 CCL4   0.3246 
1653 CL       5.9523    -0.2307   -11.7922 Cl    331 CCL4  -0.0812 
1654 CL       8.3307     0.9698   -12.8195 Cl    331 CCL4  -0.0812 
1655 CL       6.5404    -0.4646   -14.7869 Cl    331 CCL4  -0.0812 
1656 CL      -7.7137     2.6421    -3.7127 Cl    332 CCL4  -0.0812 
1657 C       -8.9957     3.7307    -3.0839 C.3   332 CCL4   0.3246 
1658 CL      -9.2227     3.1966    -1.3737 Cl    332 CCL4  -0.0812 
1659 CL     -10.4434     3.6061    -4.0530 Cl    332 CCL4  -0.0812 
1660 CL      -8.4709     5.4337    -3.1097 Cl    332 CCL4  -0.0812 
1661 CL       8.4111    12.7282   -11.8103 Cl    333 CCL4  -0.0812 
1662 C        7.4489    13.5192   -10.5487 C.3   333 CCL4   0.3246 
1663 CL       8.4803    14.1347    -9.2465 Cl    333 CCL4  -0.0812 
1664 CL       6.2335    12.5374    -9.8111 Cl    333 CCL4  -0.0812 
1665 CL       6.7392    15.1199   -11.3059 Cl    333 CCL4  -0.0812 
1666 CL      -8.8525    13.9601    -4.6962 Cl    334 CCL4  -0.0812 
1667 C      -10.3765    13.5506    -5.4755 C.3   334 CCL4   0.3246 
1668 CL     -11.7698    14.2953    -4.7530 Cl    334 CCL4  -0.0812 
1669 CL     -10.5349    11.7691    -5.5002 Cl    334 CCL4  -0.0812 
1670 CL     -10.2935    14.0505    -7.1360 Cl    334 CCL4  -0.0812 
1671 CL      -2.7702    13.7622    -4.1533 Cl    335 CCL4  -0.0812 
1672 C       -3.4041    13.8948    -5.8122 C.3   335 CCL4   0.3246 
1673 CL      -2.3947    13.0814    -6.9988 Cl    335 CCL4  -0.0812 
1674 CL      -3.6149    15.6919    -6.2671 Cl    335 CCL4  -0.0812 
1675 CL      -4.9652    13.1441    -5.9126 Cl    335 CCL4  -0.0812 
1676 CL     -12.8958    12.7854    -8.7045 Cl    336 CCL4  -0.0812 
1677 C      -11.8120    12.1873    -9.9735 C.3   336 CCL4   0.3246 
1678 CL     -12.7584    10.8557   -10.6776 Cl    336 CCL4  -0.0812 
1679 CL     -10.4799    11.3353    -9.1601 Cl    336 CCL4  -0.0812 
1680 CL     -11.3043    13.4386   -11.1413 Cl    336 CCL4  -0.0812 
1681 CL       0.4262    16.2645    -4.5749 Cl    337 CCL4  -0.0812 
1682 C        0.5375    16.0816    -2.8362 C.3   337 CCL4   0.3246 
1683 CL       2.2186    16.7618    -2.4033 Cl    337 CCL4  -0.0812 
1684 CL       0.4299    14.3257    -2.4441 Cl    337 CCL4  -0.0812 
1685 CL      -0.6565    17.0172    -1.9565 Cl    337 CCL4  -0.0812 
1686 CL       2.6994    14.3793   -19.1449 Cl    338 CCL4  -0.0812 
1687 C        3.2304    15.7267   -18.1647 C.3   338 CCL4   0.3246 
1688 CL       2.9835    17.2937   -19.0625 Cl    338 CCL4  -0.0812 
1689 CL       4.9827    15.4959   -17.9062 Cl    338 CCL4  -0.0812 
1690 CL       2.2961    15.7787   -16.5914 Cl    338 CCL4  -0.0812 
1691 CL       0.8656     8.5726   -16.2506 Cl    339 CCL4  -0.0812 
1692 C        0.3155     7.2007   -15.2928 C.3   339 CCL4   0.3246 
1693 CL      -0.6710     7.7525   -13.9275 Cl    339 CCL4  -0.0812 
1694 CL       1.7453     6.4009   -14.6912 Cl    339 CCL4  -0.0812 
1695 CL      -0.7213     6.1319   -16.3601 Cl    339 CCL4  -0.0812 
1696 CL       5.9583     9.6400    -0.9294 Cl    340 CCL4  -0.0812 
1697 C        6.7565     8.3406    -0.0134 C.3   340 CCL4   0.3246 
1698 CL       5.3807     7.5047     0.7097 Cl    340 CCL4  -0.0812 
1699 CL       7.7759     9.1223     1.1354 Cl    340 CCL4  -0.0812 
1700 CL       7.5818     7.2755    -1.0606 Cl    340 CCL4  -0.0812 
1701 CL       5.7068    10.6626    19.9471 Cl    341 CCL4  -0.0812 
1702 C        7.1786    11.6206    19.8427 C.3   341 CCL4   0.3246 
1703 CL       8.6591    10.6048    19.9774 Cl    341 CCL4  -0.0812 
1704 CL       7.2645    12.9073    21.0265 Cl    341 CCL4  -0.0812 
1705 CL       7.2992    12.4510    18.2424 Cl    341 CCL4  -0.0812 
1706 CL       4.7059     5.3454   -16.2983 Cl    342 CCL4  -0.0812 
1707 C        5.4291     6.9281   -16.2606 C.3   342 CCL4   0.3246 
1708 CL       5.7615     7.2946   -14.4729 Cl    342 CCL4  -0.0812 
1709 CL       4.2915     8.1933   -16.7852 Cl    342 CCL4  -0.0812 
1710 CL       6.9134     7.1228   -17.1897 Cl    342 CCL4  -0.0812 
1711 CL       6.3321    14.1289   -14.9865 Cl    343 CCL4  -0.0812 
1712 C        5.7939    12.3680   -15.0713 C.3   343 CCL4   0.3246 
1713 CL       4.3412    12.3697   -16.1401 Cl    343 CCL4  -0.0812 
1714 CL       5.4898    11.7721   -13.4477 Cl    343 CCL4  -0.0812 
1715 CL       7.1531    11.3795   -15.6744 Cl    343 CCL4  -0.0812 
1716 CL       1.6649     8.0124   -20.0765 Cl    344 CCL4  -0.0812 
1717 C        2.5325     6.5277   -20.0214 C.3   344 CCL4   0.3246 
1718 CL       2.0134     5.2896   -21.2340 Cl    344 CCL4  -0.0812 
1719 CL       2.1774     5.7219   -18.3372 Cl    344 CCL4  -0.0812 
1720 CL       4.3279     6.6841   -20.0642 Cl    344 CCL4  -0.0812 
1721 CL       0.1809     2.9259   -18.0481 Cl    345 CCL4  -0.0812 
1722 C        0.5551     2.1077   -16.5331 C.3   345 CCL4   0.3246 
1723 CL       1.8512     2.9247   -15.6812 Cl    345 CCL4  -0.0812 
1724 CL       1.0949     0.4167   -16.8286 Cl    345 CCL4  -0.0812 
1725 CL      -0.9292     1.9031   -15.4509 Cl    345 CCL4  -0.0812 
1726 CL       4.4072    -0.2272   -19.7766 Cl    346 CCL4  -0.0812 
1727 C        4.4910     1.2617   -18.8387 C.3   346 CCL4   0.3246 
1728 CL       4.4932     1.0621   -17.1376 Cl    346 CCL4  -0.0812 
1729 CL       3.2059     2.3745   -19.3116 Cl    346 CCL4  -0.0812 
1730 CL       5.9108     2.3249   -19.3550 Cl    346 CCL4  -0.0812 
1731 CL       4.0971     8.1072   -10.8523 Cl    347 CCL4  -0.0812 
1732 C        2.8388     9.1980   -11.4990 C.3   347 CCL4   0.3246 
1733 CL       1.1325     8.4941   -10.9708 Cl    347 CCL4  -0.0812 
1734 CL       2.8592     9.2698   -13.2705 Cl    347 CCL4  -0.0812 
1735 CL       2.7675    10.8035   -10.7146 Cl    347 CCL4  -0.0812 
1736 CL       0.1110    12.3207   -12.4344 Cl    348 CCL4  -0.0812 
1737 C       -0.5668    12.6703   -13.9977 C.3   348 CCL4   0.3246 
1738 CL      -1.3852    11.1729   -14.4292 Cl    348 CCL4  -0.0812 
1739 CL       0.5675    13.0817   -15.3309 Cl    348 CCL4  -0.0812 
1740 CL      -1.8069    13.9534   -13.9700 Cl    348 CCL4  -0.0812 
1741 CL       2.4625     5.1500    -9.9599 Cl    349 CCL4  -0.0812 
1742 C        3.9415     4.4664   -10.6494 C.3   349 CCL4   0.3246 
1743 CL       4.1561     5.2291   -12.2884 Cl    349 CCL4  -0.0812 
1744 CL       3.8370     2.7148   -10.7606 Cl    349 CCL4  -0.0812 
1745 CL       5.3533     4.8541    -9.6645 Cl    349 CCL4  -0.0812 
1746 CL       4.9575    -0.5033    -6.5477 Cl    350 CCL4  -0.0812 
1747 C        6.4407     0.3054    -7.1431 C.3   350 CCL4   0.3246 
1748 CL       5.9120     1.5223    -8.3418 Cl    350 CCL4  -0.0812 
1749 CL       7.5432    -0.8917    -7.8138 Cl    350 CCL4  -0.0812 
1750 CL       7.2631     0.9740    -5.7450 Cl    350 CCL4  -0.0812 
1751 CL     -12.5573     6.7051    -5.7840 Cl    351 CCL4  -0.0812 
1752 C      -12.9854     7.7066    -4.4099 C.3   351 CCL4   0.3246 
1753 CL     -13.3574     9.3845    -4.8419 Cl    351 CCL4  -0.0812 
1754 CL     -14.5510     7.1361    -3.7053 Cl    351 CCL4  -0.0812 
1755 CL     -11.7427     7.5947    -3.1312 Cl    351 CCL4  -0.0812 
1756 CL       3.9521    14.0235    -1.1332 Cl    352 CCL4  -0.0812 
1757 C        5.5497    13.6550    -1.8116 C.3   352 CCL4   0.3246 
1758 CL       6.1976    15.1527    -2.6667 Cl    352 CCL4  -0.0812 
1759 CL       5.3620    12.3344    -2.9425 Cl    352 CCL4  -0.0812 
1760 CL       6.7022    13.1629    -0.4622 Cl    352 CCL4  -0.0812 
1761 CL       4.2923     6.9895    -2.7255 Cl    353 CCL4  -0.0812 
1762 C        3.2624     7.7649    -3.9805 C.3   353 CCL4   0.3246 
1763 CL       2.2121     6.5342    -4.6803 Cl    353 CCL4  -0.0812 
1764 CL       4.2170     8.5676    -5.2293 Cl    353 CCL4  -0.0812 
1765 CL       2.2316     8.9616    -3.0267 Cl    353 CCL4  -0.0812 
1766 CL      -0.3084     3.1624    -5.9898 Cl    354 CCL4  -0.0812 
1767 C        0.8060     2.5288    -7.2922 C.3   354 CCL4   0.3246 
1768 CL       1.0125     0.7962    -7.0882 Cl    354 CCL4  -0.0812 
1769 CL       2.2513     3.4315    -6.9297 Cl    354 CCL4  -0.0812 
1770 CL       0.1499     3.0285    -8.8548 Cl    354 CCL4  -0.0812 
1771 CL       6.9893     6.5036    -4.6247 Cl    355 CCL4  -0.0812 
1772 C        6.9838     4.8566    -5.0478 C.3   355 CCL4   0.3246 
1773 CL       7.4479     3.9343    -3.5494 Cl    355 CCL4  -0.0812 
1774 CL       8.1378     4.4835    -6.2559 Cl    355 CCL4  -0.0812 
1775 CL       5.3833     4.3619    -5.4611 Cl    355 CCL4  -0.0812 
1776 CL      -0.9104    14.0069    19.1137 Cl    356 CCL4  -0.0812 
1777 C       -1.3357    15.8047    18.7424 C.3   356 CCL4   0.3246 
1778 CL      -0.4259    16.9214    19.7534 Cl    356 CCL4  -0.0812 
1779 CL      -3.0701    16.0255    19.1611 Cl    356 CCL4  -0.0812 
1780 CL      -0.9394    16.1597    17.0773 Cl    356 CCL4  -0.0812 
1781 CL     -14.1317    13.0691     7.6556 Cl    357 CCL4  -0.0812 
1782 C      -14.3660    14.7106     8.3198 C.3   357 CCL4   0.3246 
1783 CL     -15.8608    15.3375     7.6116 Cl    357 CCL4  -0.0812 
1784 CL     -12.9431    15.7671     8.0973 Cl    357 CCL4  -0.0812 
1785 CL     -14.5777    14.4998    10.0832 Cl    357 CCL4  -0.0812 
1786 CL      -2.4749    11.1149     4.5148 Cl    358 CCL4  -0.0812 
1787 C       -1.9735    11.1147     6.1353 C.3   358 CCL4   0.3246 
1788 CL      -2.3100     9.6191     6.9200 Cl    358 CCL4  -0.0812 
1789 CL      -2.5317    12.4701     7.0214 Cl    358 CCL4  -0.0812 
1790 CL      -0.1815    11.2412     6.1130 Cl    358 CCL4  -0.0812 
1791 CL      -4.5901     1.9453    10.3025 Cl    359 CCL4  -0.0812 
1792 C       -5.1880     2.9632     8.9073 C.3   359 CCL4   0.3246 
1793 CL      -6.4265     2.1844     7.8247 Cl    359 CCL4  -0.0812 
1794 CL      -3.8104     3.5240     7.9082 Cl    359 CCL4  -0.0812 
1795 CL      -5.9188     4.5019     9.6478 Cl    359 CCL4  -0.0812 
1796 CL     -10.3218    13.4214     9.5493 Cl    360 CCL4  -0.0812 
1797 C      -10.0355    11.6664     9.6765 C.3   360 CCL4   0.3246 
1798 CL     -10.2803    11.1513    11.3673 Cl    360 CCL4  -0.0812 
1799 CL      -8.4964    11.0670     9.1130 Cl    360 CCL4  -0.0812 
1800 CL     -11.2896    10.8533     8.7086 Cl    360 CCL4  -0.0812 
1801 CL      -4.8760    10.5037     9.3820 Cl    361 CCL4  -0.0812 
1802 C       -5.3845     8.7764     9.5982 C.3   361 CCL4   0.3246 
1803 CL      -3.9575     7.8330    10.0624 Cl    361 CCL4  -0.0812 
1804 CL      -6.0456     8.0937     8.1458 Cl    361 CCL4  -0.0812 
1805 CL      -6.4802     8.6611    11.0491 Cl    361 CCL4  -0.0812 
1806 CL      -9.9816     2.6261     5.4855 Cl    362 CCL4  -0.0812 
1807 C      -11.7630     2.1002     5.6347 C.3   362 CCL4   0.3246 
1808 CL     -11.7784     0.4071     5.8410 Cl    362 CCL4  -0.0812 
1809 CL     -12.7323     2.5319     4.1470 Cl    362 CCL4  -0.0812 
1810 CL     -12.4245     3.0300     7.0576 Cl    362 CCL4  -0.0812 
1811 CL      -5.7924     2.5371    13.3892 Cl    363 CCL4  -0.0812 
1812 C       -6.2932     0.9013    13.7446 C.3   363 CCL4   0.3246 
1813 CL      -5.0607    -0.2292    13.2015 Cl    363 CCL4  -0.0812 
1814 CL      -7.7307     0.4920    12.7904 Cl    363 CCL4  -0.0812 
1815 CL      -6.6227     0.7384    15.4311 Cl    363 CCL4  -0.0812 
1816 CL      -9.4695     3.2605     9.3274 Cl    364 CCL4  -0.0812 
1817 C      -10.2134     3.7511    10.8786 C.3   364 CCL4   0.3246 
1818 CL      -8.9895     4.2398    11.9514 Cl    364 CCL4  -0.0812 
1819 CL     -11.0903     2.3375    11.4946 Cl    364 CCL4  -0.0812 
1820 CL     -11.4040     5.0938    10.5738 Cl    364 CCL4  -0.0812 
1821 CL       9.1433     1.1671     5.7156 Cl    365 CCL4  -0.0812 
1822 C        8.9747     0.4394     4.1016 C.3   365 CCL4   0.3246 
1823 CL       7.6120    -0.7249     4.0053 Cl    365 CCL4  -0.0812 
1824 CL      10.5681    -0.1929     3.6737 Cl    365 CCL4  -0.0812 
1825 CL       8.6295     1.8263     2.9967 Cl    365 CCL4  -0.0812 
1826 CL      -0.4191     8.7017    -0.1589 Cl    366 CCL4  -0.0812 
1827 C        0.5816     7.3756     0.5948 C.3   366 CCL4   0.3246 
1828 CL       0.9988     6.2970    -0.7489 Cl    366 CCL4  -0.0812 
1829 CL      -0.3546     6.5789     1.8323 Cl    366 CCL4  -0.0812 
1830 CL       2.0092     8.1047     1.3382 Cl    366 CCL4  -0.0812 
1831 CL      -3.2450     7.9769     3.5967 Cl    367 CCL4  -0.0812 
1832 C       -3.4926     6.4062     4.3624 C.3   367 CCL4   0.3246 
1833 CL      -4.8713     6.4423     5.4459 Cl    367 CCL4  -0.0812 
1834 CL      -2.0355     5.9201     5.3076 Cl    367 CCL4  -0.0812 
1835 CL      -3.7153     5.1261     3.0834 Cl    367 CCL4  -0.0812 
1836 CL     -10.0463     6.2021     0.4155 Cl    368 CCL4  -0.0812 
1837 C       -9.5747     5.6088     2.0259 C.3   368 CCL4   0.3246 
1838 CL     -10.7548     6.1913     3.1850 Cl    368 CCL4  -0.0812 
1839 CL      -8.0377     6.3521     2.4782 Cl    368 CCL4  -0.0812 
1840 CL      -9.3697     3.8566     1.9515 Cl    368 CCL4  -0.0812 
1841 CL      -6.4478    12.5914     3.6487 Cl    369 CCL4  -0.0812 
1842 C       -6.8338    11.1362     4.6967 C.3   369 CCL4   0.3246 
1843 CL      -8.5374    11.1615     5.3072 Cl    369 CCL4  -0.0812 
1844 CL      -5.7075    10.9917     6.0953 Cl    369 CCL4  -0.0812 
1845 CL      -6.4506     9.7328     3.6677 Cl    369 CCL4  -0.0812 
1846 CL     -13.6170     9.1167     2.8356 Cl    370 CCL4  -0.0812 
1847 C      -12.3717    10.0504     3.6715 C.3   370 CCL4   0.3246 
1848 CL     -12.5617     9.5952     5.4688 Cl    370 CCL4  -0.0812 
1849 CL     -12.7456    11.8449     3.7757 Cl    370 CCL4  -0.0812 
1850 CL     -10.8606     9.5442     3.0817 Cl    370 CCL4  -0.0812 
1851 CL      -8.5966     5.5222     6.5651 Cl    371 CCL4  -0.0812 
1852 C       -9.6108     6.7616     7.2890 C.3   371 CCL4   0.3246 
1853 CL      -9.2814     8.2866     6.4454 Cl    371 CCL4  -0.0812 
1854 CL      -8.9899     7.0055     9.0071 Cl    371 CCL4  -0.0812 
1855 CL     -11.2862     6.2351     7.2617 Cl    371 CCL4  -0.0812 
1856 CL      10.6311    10.9503    10.4789 Cl    372 CCL4  -0.0812 
1857 C       10.3018     9.3228     9.8222 C.3   372 CCL4   0.3246 
1858 CL       9.0509     8.4839    10.7086 Cl    372 CCL4  -0.0812 
1859 CL      11.6942     8.3199    10.0560 Cl    372 CCL4  -0.0812 
1860 CL       9.8890     9.5715     8.0715 Cl    372 CCL4  -0.0812 
1861 CL      10.9160     2.9300    10.2777 Cl    373 CCL4  -0.0812 
1862 C        9.4505     3.8059     9.7530 C.3   373 CCL4   0.3246 
1863 CL      10.0155     5.0496     8.6002 Cl    373 CCL4  -0.0812 
1864 CL       8.5583     4.5547    11.0517 Cl    373 CCL4  -0.0812 
1865 CL       8.3491     2.7196     8.7677 Cl    373 CCL4  -0.0812 
1866 CL       8.4432     4.5752     5.1677 Cl    374 CCL4  -0.0812 
1867 C        8.9873     6.0843     4.4398 C.3   374 CCL4   0.3246 
1868 CL      10.2583     6.8650     5.4834 Cl    374 CCL4  -0.0812 
1869 CL       7.6752     7.3269     4.3447 Cl    374 CCL4  -0.0812 
1870 CL       9.6555     5.9734     2.8724 Cl    374 CCL4  -0.0812 
1871 CL      -9.9844     4.9938    17.9495 Cl    375 CCL4  -0.0812 
1872 C       -9.5122     3.5278    16.9597 C.3   375 CCL4   0.3246 
1873 CL     -11.0562     3.0111    16.2069 Cl    375 CCL4  -0.0812 
1874 CL      -8.7347     2.2076    17.9387 Cl    375 CCL4  -0.0812 
1875 CL      -8.4328     4.1128    15.7025 Cl    375 CCL4  -0.0812 
1876 CL      -4.2252     8.5555    14.1090 Cl    376 CCL4  -0.0812 
1877 C       -3.3243     9.6282    15.1828 C.3   376 CCL4   0.3246 
1878 CL      -2.1644    10.7156    14.3743 Cl    376 CCL4  -0.0812 
1879 CL      -2.3523     8.5436    16.4307 Cl    376 CCL4  -0.0812 
1880 CL      -4.4303    10.5937    16.1624 Cl    376 CCL4  -0.0812 
1881 CL      -5.3024    11.8751    12.9274 Cl    377 CCL4  -0.0812 
1882 C       -6.8764    12.1528    13.7969 C.3   377 CCL4   0.3246 
1883 CL      -6.6032    13.1008    15.2293 Cl    377 CCL4  -0.0812 
1884 CL      -7.5778    10.5355    14.2424 Cl    377 CCL4  -0.0812 
1885 CL      -7.9063    13.0348    12.7452 Cl    377 CCL4  -0.0812 
1886 CL      -0.2938     4.0291    12.4904 Cl    378 CCL4  -0.0812 
1887 C       -1.8322     4.4535    13.0790 C.3   378 CCL4   0.3246 
1888 CL      -2.9140     4.7724    11.6364 Cl    378 CCL4  -0.0812 
1889 CL      -1.7425     5.9035    14.0166 Cl    378 CCL4  -0.0812 
1890 CL      -2.5670     3.1706    14.0063 Cl    378 CCL4  -0.0812 
1891 CL     -10.9070     8.0235    12.9491 Cl    379 CCL4  -0.0812 
1892 C      -12.0022     7.0612    13.8841 C.3   379 CCL4   0.3246 
1893 CL     -13.6886     7.3538    13.4186 Cl    379 CCL4  -0.0812 
1894 CL     -11.9255     7.6221    15.5188 Cl    379 CCL4  -0.0812 
1895 CL     -11.5846     5.3484    13.7738 Cl    379 CCL4  -0.0812 
1896 CL       5.6074     2.0232    11.5201 Cl    380 CCL4  -0.0812 
1897 C        6.6097     0.5172    11.7191 C.3   380 CCL4   0.3246 
1898 CL       5.9523    -0.2307    13.2078 Cl    380 CCL4  -0.0812 
1899 CL       8.3307     0.9698    12.1805 Cl    380 CCL4  -0.0812 
1900 CL       6.5404    -0.4646    10.2131 Cl    380 CCL4  -0.0812 
1901 CL      -9.9749    12.4705     1.6671 Cl    381 CCL4  -0.0812 
1902 C       -9.4626    13.9224     0.9054 C.3   381 CCL4   0.3246 
1903 CL      -9.6630    15.2658     1.9870 Cl    381 CCL4  -0.0812 
1904 CL     -10.3080    14.3323    -0.5688 Cl    381 CCL4  -0.0812 
1905 CL      -7.6762    13.8874     0.5899 Cl    381 CCL4  -0.0812 
1906 CL     -10.1772    14.4281     5.9105 Cl    382 CCL4  -0.0812 
1907 C       -9.9165    16.1406     5.8154 C.3   382 CCL4   0.3246 
1908 CL     -11.0385    16.9954     4.8512 Cl    382 CCL4  -0.0812 
1909 CL      -8.1931    16.3382     5.0441 Cl    382 CCL4  -0.0812 
1910 CL      -9.6777    16.8225     7.4740 Cl    382 CCL4  -0.0812 
1911 CL       8.4111    12.7282    13.1897 Cl    383 CCL4  -0.0812 
1912 C        7.4489    13.5192    14.4513 C.3   383 CCL4   0.3246 
1913 CL       8.4803    14.1347    15.7535 Cl    383 CCL4  -0.0812 
1914 CL       6.2335    12.5374    15.1889 Cl    383 CCL4  -0.0812 
1915 CL       6.7392    15.1199    13.6941 Cl    383 CCL4  -0.0812 
1916 CL      -1.4653    12.3980     0.9749 Cl    384 CCL4  -0.0812 
1917 C       -3.1669    12.4561     0.6895 C.3   384 CCL4   0.3246 
1918 CL      -3.8728    10.9928     1.1484 Cl    384 CCL4  -0.0812 
1919 CL      -3.5027    12.9066    -1.0504 Cl    384 CCL4  -0.0812 
1920 CL      -3.8217    13.8244     1.7064 Cl    384 CCL4  -0.0812 
1921 CL     -12.8958    12.7854    16.2955 Cl    385 CCL4  -0.0812 
1922 C      -11.8120    12.1873    15.0265 C.3   385 CCL4   0.3246 
1923 CL     -12.7584    10.8557    14.3224 Cl    385 CCL4  -0.0812 
1924 CL     -10.4799    11.3353    15.8399 Cl    385 CCL4  -0.0812 
1925 CL     -11.3043    13.4386    13.8587 Cl    385 CCL4  -0.0812 
1926 CL       2.6994    14.3793     5.8551 Cl    386 CCL4  -0.0812 
1927 C        3.2304    15.7267     6.8353 C.3   386 CCL4   0.3246 
1928 CL       2.9835    17.2937     5.9375 Cl    386 CCL4  -0.0812 
1929 CL       4.9827    15.4959     7.0938 Cl    386 CCL4  -0.0812 
1930 CL       2.2961    15.7787     8.4086 Cl    386 CCL4  -0.0812 
1931 CL       0.8656     8.5726     8.7494 Cl    387 CCL4  -0.0812 
1932 C        0.3155     7.2007     9.7072 C.3   387 CCL4   0.3246 
1933 CL      -0.6710     7.7525    11.0725 Cl    387 CCL4  -0.0812 
1934 CL       1.7453     6.4009    10.3088 Cl    387 CCL4  -0.0812 
1935 CL      -0.7213     6.1319     8.6399 Cl    387 CCL4  -0.0812 
1936 CL       5.7068    10.6626     4.9471 Cl    388 CCL4  -0.0812 
1937 C        7.1786    11.6206     4.8427 C.3   388 CCL4   0.3246 
1938 CL       8.6591    10.6048     4.9774 Cl    388 CCL4  -0.0812 
1939 CL       7.2645    12.9073     6.0265 Cl    388 CCL4  -0.0812 
1940 CL       7.2992    12.4510     3.2424 Cl    388 CCL4  -0.0812 
1941 CL       4.7059     5.3454     8.7017 Cl    389 CCL4  -0.0812 
1942 C        5.4291     6.9281     8.7394 C.3   389 CCL4   0.3246 
1943 CL       5.7615     7.2946    10.5271 Cl    389 CCL4  -0.0812 
1944 CL       4.2915     8.1933     8.2148 Cl    389 CCL4  -0.0812 
1945 CL       6.9134     7.1228     7.8103 Cl    389 CCL4  -0.0812 
1946 CL       6.3321    14.1289    10.0135 Cl    390 CCL4  -0.0812 
1947 C        5.7939    12.3680     9.9287 C.3   390 CCL4   0.3246 
1948 CL       4.3412    12.3697     8.8599 Cl    390 CCL4  -0.0812 
1949 CL       5.4898    11.7721    11.5523 Cl    390 CCL4  -0.0812 
1950 CL       7.1531    11.3795     9.3256 Cl    390 CCL4  -0.0812 
1951 CL       1.6649     8.0124     4.9235 Cl    391 CCL4  -0.0812 
1952 C        2.5325     6.5277     4.9786 C.3   391 CCL4   0.3246 
1953 CL       2.0134     5.2896     3.7660 Cl    391 CCL4  -0.0812 
1954 CL       2.1774     5.7219     6.6628 Cl    391 CCL4  -0.0812 
1955 CL       4.3279     6.6841     4.9358 Cl    391 CCL4  -0.0812 
1956 CL       0.1809     2.9259     6.9519 Cl    392 CCL4  -0.0812 
1957 C        0.5551     2.1077     8.4669 C.3   392 CCL4   0.3246 
1958 CL       1.8512     2.9247     9.3188 Cl    392 CCL4  -0.0812 
1959 CL       1.0949     0.4167     8.1714 Cl    392 CCL4  -0.0812 
1960 CL      -0.9292     1.9031     9.5491 Cl    392 CCL4  -0.0812 
1961 CL       4.0030    11.8336     1.9804 Cl    393 CCL4  -0.0812 
1962 C        2.3182    12.1402     1.5368 C.3   393 CCL4   0.3246 
1963 CL       1.2902    11.3263     2.7260 Cl    393 CCL4  -0.0812 
1964 CL       1.9021    11.5425    -0.1056 Cl    393 CCL4  -0.0812 
1965 CL       1.7854    13.8328     1.6356 Cl    393 CCL4  -0.0812 
1966 CL       4.4072    -0.2272     5.2234 Cl    394 CCL4  -0.0812 
1967 C        4.4910     1.2617     6.1613 C.3   394 CCL4   0.3246 
1968 CL       4.4932     1.0621     7.8624 Cl    394 CCL4  -0.0812 
1969 CL       3.2059     2.3745     5.6884 Cl    394 CCL4  -0.0812 
1970 CL       5.9108     2.3249     5.6450 Cl    394 CCL4  -0.0812 
1971 CL       4.0971     8.1072    14.1477 Cl    395 CCL4  -0.0812 
1972 C        2.8388     9.1980    13.5010 C.3   395 CCL4   0.3246 
1973 CL       1.1325     8.4941    14.0292 Cl    395 CCL4  -0.0812 
1974 CL       2.8592     9.2698    11.7295 Cl    395 CCL4  -0.0812 
1975 CL       2.7675    10.8035    14.2854 Cl    395 CCL4  -0.0812 
1976 CL       0.1110    12.3207    12.5656 Cl    396 CCL4  -0.0812 
1977 C       -0.5668    12.6703    11.0023 C.3   396 CCL4   0.3246 
1978 CL      -1.3852    11.1729    10.5708 Cl    396 CCL4  -0.0812 
1979 CL       0.5675    13.0817     9.6691 Cl    396 CCL4  -0.0812 
1980 CL      -1.8069    13.9534    11.0300 Cl    396 CCL4  -0.0812 
1981 CL       2.4625     5.1500    15.0401 Cl    397 CCL4  -0.0812 
1982 C        3.9415     4.4664    14.3506 C.3   397 CCL4   0.3246 
1983 CL       4.1561     5.2291    12.7116 Cl    397 CCL4  -0.0812 
1984 CL       3.8370     2.7148    14.2394 Cl    397 CCL4  -0.0812 
1985 CL       5.3533     4.8541    15.3355 Cl    397 CCL4  -0.0812 
1986 CL      -0.9104    14.0069     4.1137 Cl    398 CCL4  -0.0812 
1987 C       -1.3357    15.8047     3.7424 C.3   398 CCL4   0.3246 
1988 CL      -0.4259    16.9214     4.7534 Cl    398 CCL4  -0.0812 
1989 CL      -3.0701    16.0255     4.1611 Cl    398 CCL4  -0.0812 
1990 CL      -0.9394    16.1597     2.0773 Cl    398 CCL4  -0.0812 
1991 CL      10.8683   -11.9309   -17.3444 Cl    399 CCL4  -0.0812 
1992 C       10.6340   -10.2894   -16.6802 C.3   399 CCL4   0.3246 
1993 CL       9.1392    -9.6625   -17.3884 Cl    399 CCL4  -0.0812 
1994 CL      12.0569    -9.2329   -16.9027 Cl    399 CCL4  -0.0812 
1995 CL      10.4223   -10.5002   -14.9168 Cl    399 CCL4  -0.0812 
1996 CL      14.6782   -11.5786   -15.4507 Cl    400 CCL4  -0.0812 
1997 C       14.9645   -13.3336   -15.3235 C.3   400 CCL4   0.3246 
1998 CL      14.7197   -13.8487   -13.6327 Cl    400 CCL4  -0.0812 
1999 CL      16.5036   -13.9330   -15.8870 Cl    400 CCL4  -0.0812 
2000 CL      13.7104   -14.1467   -16.2914 Cl    400 CCL4  -0.0812 
2001 CL      16.1276    -2.6966   -15.2683 Cl    401 CCL4  -0.0812 
2002 C       16.6618    -1.1352   -15.9537 C.3   401 CCL4   0.3246 
2003 CL      15.7336     0.2799   -15.4200 Cl    401 CCL4  -0.0812 
2004 CL      16.8084    -1.1249   -17.7012 Cl    401 CCL4  -0.0812 
2005 CL      18.2953    -0.8694   -15.2966 Cl    401 CCL4  -0.0812 
2006 CL      20.1240   -14.4963   -15.6180 Cl    402 CCL4  -0.0812 
2007 C       19.6155   -16.2236   -15.4018 C.3   402 CCL4   0.3246 
2008 CL      21.0425   -17.1670   -14.9376 Cl    402 CCL4  -0.0812 
2009 CL      18.9544   -16.9063   -16.8542 Cl    402 CCL4  -0.0812 
2010 CL      18.5198   -16.3389   -13.9509 Cl    402 CCL4  -0.0812 
2011 CL      15.5305    18.2605   -15.6726 Cl    403 CCL4  -0.0812 
2012 C       14.7866    18.7511   -14.1214 C.3   403 CCL4   0.3246 
2013 CL      16.0105    19.2398   -13.0486 Cl    403 CCL4  -0.0812 
2014 CL      13.9097    17.3375   -13.5054 Cl    403 CCL4  -0.0812 
2015 CL      13.5960    20.0938   -14.4262 Cl    403 CCL4  -0.0812 
2016 CL      15.5712    -2.3055    19.4355 Cl    404 CCL4  -0.0812 
2017 C       17.0928    -2.0164    18.5776 C.3   404 CCL4   0.3246 
2018 CL      17.4290    -0.2445    19.0167 Cl    404 CCL4  -0.0812 
2019 CL      16.8584    -2.0842    16.8272 Cl    404 CCL4  -0.0812 
2020 CL      18.4530    -3.1023    18.9607 Cl    404 CCL4  -0.0812 
2021 CL      17.5783   -14.3149    -0.0364 Cl    405 CCL4  -0.0812 
2022 C       17.2723   -14.1647    -1.7416 C.3   405 CCL4   0.3246 
2023 CL      18.3427   -12.9965    -2.5246 Cl    405 CCL4  -0.0812 
2024 CL      15.6019   -13.6918    -2.0895 Cl    405 CCL4  -0.0812 
2025 CL      17.4370   -15.7869    -2.5577 Cl    405 CCL4  -0.0812 
2026 CL      10.4769   -12.7246     0.3523 Cl    406 CCL4  -0.0812 
2027 C       11.1792   -13.7224    -1.0036 C.3   406 CCL4   0.3246 
2028 CL      12.5629   -14.5584    -0.3293 Cl    406 CCL4  -0.0812 
2029 CL      11.7341   -12.5452    -2.1738 Cl    406 CCL4  -0.0812 
2030 CL      10.0628   -14.8902    -1.6149 Cl    406 CCL4  -0.0812 
2031 CL      16.4034   -19.4778   -18.4349 Cl    407 CCL4  -0.0812 
2032 C       15.3892   -18.2384   -17.7110 C.3   407 CCL4   0.3246 
2033 CL      15.7186   -16.7134   -18.5546 Cl    407 CCL4  -0.0812 
2034 CL      16.0101   -17.9945   -15.9929 Cl    407 CCL4  -0.0812 
2035 CL      13.7138   -18.7649   -17.7383 Cl    407 CCL4  -0.0812 
2036 CL      12.5158    -0.3722   -16.0661 Cl    408 CCL4  -0.0812 
2037 C       11.1588    -1.1350   -15.1767 C.3   408 CCL4   0.3246 
2038 CL       9.6400    -0.5524   -15.9390 Cl    408 CCL4  -0.0812 
2039 CL      11.1679    -0.5436   -13.5261 Cl    408 CCL4  -0.0812 
2040 CL      11.4272    -2.8724   -15.2718 Cl    408 CCL4  -0.0812 
2041 CL      15.0156    19.9938    -7.0505 Cl    409 CCL4  -0.0812 
2042 C       15.4878    18.5278    -8.0403 C.3   409 CCL4   0.3246 
2043 CL      13.9438    18.0111    -8.7931 Cl    409 CCL4  -0.0812 
2044 CL      16.2653    17.2076    -7.0613 Cl    409 CCL4  -0.0812 
2045 CL      16.5672    19.1128    -9.2975 Cl    409 CCL4  -0.0812 
2046 CL      19.6976   -13.1249   -12.0726 Cl    410 CCL4  -0.0812 
2047 C       18.1236   -12.8472   -11.2031 C.3   410 CCL4   0.3246 
2048 CL      18.3968   -11.8992    -9.7707 Cl    410 CCL4  -0.0812 
2049 CL      17.4222   -14.4645   -10.7576 Cl    410 CCL4  -0.0812 
2050 CL      17.0937   -11.9652   -12.2548 Cl    410 CCL4  -0.0812 
2051 CL      18.0053    -3.4212    -6.1007 Cl    411 CCL4  -0.0812 
2052 C       17.4162    -1.8113    -5.3827 C.3   411 CCL4   0.3246 
2053 CL      17.5467    -2.0571    -3.6371 Cl    411 CCL4  -0.0812 
2054 CL      15.8355    -1.2327    -5.7783 Cl    411 CCL4  -0.0812 
2055 CL      18.6443    -0.5254    -5.8042 Cl    411 CCL4  -0.0812 
2056 CL      15.7911   -16.6990    -5.3258 Cl    412 CCL4  -0.0812 
2057 C       17.2761   -16.4116    -6.2690 C.3   412 CCL4   0.3246 
2058 CL      16.9051   -16.7458    -7.9544 Cl    412 CCL4  -0.0812 
2059 CL      18.4786   -17.4785    -5.6193 Cl    412 CCL4  -0.0812 
2060 CL      17.7022   -14.6444    -6.1631 Cl    412 CCL4  -0.0812 
2061 CL      14.0930   -16.9765   -12.0509 Cl    413 CCL4  -0.0812 
2062 C       12.9978   -17.9388   -11.1159 C.3   413 CCL4   0.3246 
2063 CL      11.3114   -17.6462   -11.5814 Cl    413 CCL4  -0.0812 
2064 CL      13.0745   -17.3779    -9.4812 Cl    413 CCL4  -0.0812 
2065 CL      13.4154   -19.6516   -11.2262 Cl    413 CCL4  -0.0812 
2066 CL      17.2863    17.6421    -3.7127 Cl    414 CCL4  -0.0812 
2067 C       16.0043    18.7307    -3.0839 C.3   414 CCL4   0.3246 
2068 CL      15.7773    18.1966    -1.3737 Cl    414 CCL4  -0.0812 
2069 CL      14.5566    18.6061    -4.0530 Cl    414 CCL4  -0.0812 
2070 CL      16.5291    20.4337    -3.1097 Cl    414 CCL4  -0.0812 
2071 CL      19.7403    -8.7626   -17.6388 Cl    415 CCL4  -0.0812 
2072 C       19.0499    -9.8927   -16.4424 C.3   415 CCL4   0.3246 
2073 CL      17.9139   -10.9881   -17.4412 Cl    415 CCL4  -0.0812 
2074 CL      18.0971    -8.8439   -15.2914 Cl    415 CCL4  -0.0812 
2075 CL      20.2187   -10.9618   -15.6780 Cl    415 CCL4  -0.0812 
2076 CL      19.0440    -4.7603   -10.2572 Cl    416 CCL4  -0.0812 
2077 C       18.6559    -5.0758   -12.0141 C.3   416 CCL4   0.3246 
2078 CL      17.4569    -6.4972   -12.0308 Cl    416 CCL4  -0.0812 
2079 CL      20.1991    -5.6630   -12.7770 Cl    416 CCL4  -0.0812 
2080 CL      18.0119    -3.6945   -12.7638 Cl    416 CCL4  -0.0812 
2081 CL      15.1302    -6.0171   -14.8413 Cl    417 CCL4  -0.0812 
2082 C       14.0056    -6.8081   -13.7449 C.3   417 CCL4   0.3246 
2083 CL      14.4046    -8.4894   -13.4887 Cl    417 CCL4  -0.0812 
2084 CL      12.3614    -6.6857   -14.4914 Cl    417 CCL4  -0.0812 
2085 CL      13.9967    -6.0483   -12.1206 Cl    417 CCL4  -0.0812 
2086 CL      19.8577    -5.7849   -19.2040 Cl    418 CCL4  -0.0812 
2087 C       18.8662    -4.9547   -17.9250 C.3   418 CCL4   0.3246 
2088 CL      18.9440    -5.6327   -16.3275 Cl    418 CCL4  -0.0812 
2089 CL      17.1403    -4.8593   -18.3078 Cl    418 CCL4  -0.0812 
2090 CL      19.4762    -3.2591   -17.8904 Cl    418 CCL4  -0.0812 
2091 CL      14.2626    -0.3507   -10.0640 Cl    419 CCL4  -0.0812 
2092 C       14.8079    -2.0418   -10.3558 C.3   419 CCL4   0.3246 
2093 CL      13.8478    -3.1406    -9.3785 Cl    419 CCL4  -0.0812 
2094 CL      16.4726    -2.3169    -9.9553 Cl    419 CCL4  -0.0812 
2095 CL      14.6164    -2.4744   -12.0340 Cl    419 CCL4  -0.0812 
2096 CL      14.8228   -10.5719   -19.0895 Cl    420 CCL4  -0.0812 
2097 C       15.0835    -8.8594   -19.1846 C.3   420 CCL4   0.3246 
2098 CL      13.9615    -8.0046   -20.1488 Cl    420 CCL4  -0.0812 
2099 CL      16.8069    -8.6618   -19.9559 Cl    420 CCL4  -0.0812 
2100 CL      15.3223    -8.1775   -17.5260 Cl    420 CCL4  -0.0812 
2101 CL      16.1475   -11.0399    -4.6962 Cl    421 CCL4  -0.0812 
2102 C       14.6235   -11.4494    -5.4755 C.3   421 CCL4   0.3246 
2103 CL      13.2302   -10.7047    -4.7530 Cl    421 CCL4  -0.0812 
2104 CL      14.4651   -13.2309    -5.5002 Cl    421 CCL4  -0.0812 
2105 CL      14.7065   -10.9495    -7.1360 Cl    421 CCL4  -0.0812 
2106 CL      16.0395    -5.8278    -8.2702 Cl    422 CCL4  -0.0812 
2107 C       15.6810    -7.6121    -8.2548 C.3   422 CCL4   0.3246 
2108 CL      14.5338    -8.1857    -9.4339 Cl    422 CCL4  -0.0812 
2109 CL      14.9174    -7.8459    -6.6031 Cl    422 CCL4  -0.0812 
2110 CL      17.1686    -8.6205    -8.3120 Cl    422 CCL4  -0.0812 
2111 CL      12.5799    -3.3096    -5.8495 Cl    423 CCL4  -0.0812 
2112 C       13.1188    -4.3823    -4.4453 C.3   423 CCL4   0.3246 
2113 CL      12.2875    -5.9253    -4.5296 Cl    423 CCL4  -0.0812 
2114 CL      12.6341    -3.5711    -2.9696 Cl    423 CCL4  -0.0812 
2115 CL      14.9351    -4.6030    -4.6593 Cl    423 CCL4  -0.0812 
2116 CL      17.9866    -8.1629    -4.7201 Cl    424 CCL4  -0.0812 
2117 C       17.5376    -7.6733    -3.0725 C.3   424 CCL4   0.3246 
2118 CL      18.2145    -9.0887    -2.1381 Cl    424 CCL4  -0.0812 
2119 CL      15.7594    -7.6063    -2.8495 Cl    424 CCL4  -0.0812 
2120 CL      18.2155    -6.1117    -2.6258 Cl    424 CCL4  -0.0812 
2121 CL      11.0634    -8.7332    -7.4744 Cl    425 CCL4  -0.0812 
2122 C       10.9725    -7.8705    -9.0316 C.3   425 CCL4   0.3246 
2123 CL      11.8008    -6.2296    -9.0355 Cl    425 CCL4  -0.0812 
2124 CL       9.2454    -7.3554    -9.2059 Cl    425 CCL4  -0.0812 
2125 CL      11.5699    -8.8364   -10.4322 Cl    425 CCL4  -0.0812 
2126 CL      12.1042   -12.2146    -8.7045 Cl    426 CCL4  -0.0812 
2127 C       13.1880   -12.8127    -9.9735 C.3   426 CCL4   0.3246 
2128 CL      12.2416   -14.1443   -10.6776 Cl    426 CCL4  -0.0812 
2129 CL      14.5201   -13.6647    -9.1601 Cl    426 CCL4  -0.0812 
2130 CL      13.6957   -11.5614   -11.1413 Cl    426 CCL4  -0.0812 
2131 CL      10.8683   -11.9309     7.6556 Cl    427 CCL4  -0.0812 
2132 C       10.6340   -10.2894     8.3198 C.3   427 CCL4   0.3246 
2133 CL       9.1392    -9.6625     7.6116 Cl    427 CCL4  -0.0812 
2134 CL      12.0569    -9.2329     8.0973 Cl    427 CCL4  -0.0812 
2135 CL      10.4223   -10.5002    10.0832 Cl    427 CCL4  -0.0812 
2136 CL      20.4099    16.9453    10.3025 Cl    428 CCL4  -0.0812 
2137 C       19.8120    17.9632     8.9073 C.3   428 CCL4   0.3246 
2138 CL      18.5735    17.1844     7.8247 Cl    428 CCL4  -0.0812 
2139 CL      21.1896    18.5240     7.9082 Cl    428 CCL4  -0.0812 
2140 CL      19.0812    19.5019     9.6478 Cl    428 CCL4  -0.0812 
2141 CL      14.6782   -11.5786     9.5493 Cl    429 CCL4  -0.0812 
2142 C       14.9645   -13.3336     9.6765 C.3   429 CCL4   0.3246 
2143 CL      14.7197   -13.8487    11.3673 Cl    429 CCL4  -0.0812 
2144 CL      16.5036   -13.9330     9.1130 Cl    429 CCL4  -0.0812 
2145 CL      13.7104   -14.1467     8.7086 Cl    429 CCL4  -0.0812 
2146 CL      16.1276    -2.6966     9.7317 Cl    430 CCL4  -0.0812 
2147 C       16.6618    -1.1352     9.0463 C.3   430 CCL4   0.3246 
2148 CL      15.7336     0.2799     9.5800 Cl    430 CCL4  -0.0812 
2149 CL      16.8084    -1.1249     7.2988 Cl    430 CCL4  -0.0812 
2150 CL      18.2953    -0.8694     9.7034 Cl    430 CCL4  -0.0812 
2151 CL      20.1240   -14.4963     9.3820 Cl    431 CCL4  -0.0812 
2152 C       19.6155   -16.2236     9.5982 C.3   431 CCL4   0.3246 
2153 CL      21.0425   -17.1670    10.0624 Cl    431 CCL4  -0.0812 
2154 CL      18.9544   -16.9063     8.1458 Cl    431 CCL4  -0.0812 
2155 CL      18.5198   -16.3389    11.0491 Cl    431 CCL4  -0.0812 
2156 CL      15.5305    18.2605     9.3274 Cl    432 CCL4  -0.0812 
2157 C       14.7866    18.7511    10.8786 C.3   432 CCL4   0.3246 
2158 CL      16.0105    19.2398    11.9514 Cl    432 CCL4  -0.0812 
2159 CL      13.9097    17.3375    11.4946 Cl    432 CCL4  -0.0812 
2160 CL      13.5960    20.0938    10.5738 Cl    432 CCL4  -0.0812 
2161 CL      15.5712    -2.3055     4.4355 Cl    433 CCL4  -0.0812 
2162 C       17.0928    -2.0164     3.5776 C.3   433 CCL4   0.3246 
2163 CL      17.4290    -0.2445     4.0167 Cl    433 CCL4  -0.0812 
2164 CL      16.8584    -2.0842     1.8272 Cl    433 CCL4  -0.0812 
2165 CL      18.4530    -3.1023     3.9607 Cl    433 CCL4  -0.0812 
2166 CL      14.9537   -18.7979     0.4155 Cl    434 CCL4  -0.0812 
2167 C       15.4253   -19.3912     2.0259 C.3   434 CCL4   0.3246 
2168 CL      14.2452   -18.8087     3.1850 Cl    434 CCL4  -0.0812 
2169 CL      16.9623   -18.6479     2.4782 Cl    434 CCL4  -0.0812 
2170 CL      15.6303   -21.1434     1.9515 Cl    434 CCL4  -0.0812 
2171 CL      18.5522   -12.4086     3.6487 Cl    435 CCL4  -0.0812 
2172 C       18.1662   -13.8638     4.6967 C.3   435 CCL4   0.3246 
2173 CL      16.4626   -13.8385     5.3072 Cl    435 CCL4  -0.0812 
2174 CL      19.2925   -14.0083     6.0953 Cl    435 CCL4  -0.0812 
2175 CL      18.5494   -15.2672     3.6677 Cl    435 CCL4  -0.0812 
2176 CL      11.3830   -15.8833     2.8356 Cl    436 CCL4  -0.0812 
2177 C       12.6283   -14.9496     3.6715 C.3   436 CCL4   0.3246 
2178 CL      12.4383   -15.4048     5.4688 Cl    436 CCL4  -0.0812 
2179 CL      12.2544   -13.1551     3.7757 Cl    436 CCL4  -0.0812 
2180 CL      14.1394   -15.4558     3.0817 Cl    436 CCL4  -0.0812 
2181 CL      16.4034   -19.4778     6.5651 Cl    437 CCL4  -0.0812 
2182 C       15.3892   -18.2384     7.2890 C.3   437 CCL4   0.3246 
2183 CL      15.7186   -16.7134     6.4454 Cl    437 CCL4  -0.0812 
2184 CL      16.0101   -17.9945     9.0071 Cl    437 CCL4  -0.0812 
2185 CL      13.7138   -18.7649     7.2617 Cl    437 CCL4  -0.0812 
2186 CL      12.5158    -0.3722     8.9339 Cl    438 CCL4  -0.0812 
2187 C       11.1588    -1.1350     9.8233 C.3   438 CCL4   0.3246 
2188 CL       9.6400    -0.5524     9.0610 Cl    438 CCL4  -0.0812 
2189 CL      11.1679    -0.5436    11.4739 Cl    438 CCL4  -0.0812 
2190 CL      11.4272    -2.8724     9.7282 Cl    438 CCL4  -0.0812 
2191 CL      14.1664     0.2138     2.1570 Cl    439 CCL4  -0.0812 
2192 C       13.4390    -0.5536     0.6555 C.3   439 CCL4   0.3246 
2193 CL      12.1359     0.4558    -0.0335 Cl    439 CCL4  -0.0812 
2194 CL      13.2540    -2.2887     0.8361 Cl    439 CCL4  -0.0812 
2195 CL      14.9114    -0.4343    -0.4876 Cl    439 CCL4  -0.0812 
2196 CL      15.0156    19.9938    17.9495 Cl    440 CCL4  -0.0812 
2197 C       15.4878    18.5278    16.9597 C.3   440 CCL4   0.3246 
2198 CL      13.9438    18.0111    16.2069 Cl    440 CCL4  -0.0812 
2199 CL      16.2653    17.2076    17.9387 Cl    440 CCL4  -0.0812 
2200 CL      16.5672    19.1128    15.7025 Cl    440 CCL4  -0.0812 
2201 CL      19.6976   -13.1249    12.9274 Cl    441 CCL4  -0.0812 
2202 C       18.1236   -12.8472    13.7969 C.3   441 CCL4   0.3246 
2203 CL      18.3968   -11.8992    15.2293 Cl    441 CCL4  -0.0812 
2204 CL      17.4222   -14.4645    14.2424 Cl    441 CCL4  -0.0812 
2205 CL      17.0937   -11.9652    12.7452 Cl    441 CCL4  -0.0812 
2206 CL      14.0930   -16.9765    12.9491 Cl    442 CCL4  -0.0812 
2207 C       12.9978   -17.9388    13.8841 C.3   442 CCL4   0.3246 
2208 CL      11.3114   -17.6462    13.4186 Cl    442 CCL4  -0.0812 
2209 CL      13.0745   -17.3779    15.5188 Cl    442 CCL4  -0.0812 
2210 CL      13.4154   -19.6516    13.7738 Cl    442 CCL4  -0.0812 
2211 CL      19.7403    -8.7626     7.3612 Cl    443 CCL4  -0.0812 
2212 C       19.0499    -9.8927     8.5576 C.3   443 CCL4   0.3246 
2213 CL      17.9139   -10.9881     7.5588 Cl    443 CCL4  -0.0812 
2214 CL      18.0971    -8.8439     9.7086 Cl    443 CCL4  -0.0812 
2215 CL      20.2187   -10.9618     9.3220 Cl    443 CCL4  -0.0812 
2216 CL      19.0440    -4.7603    14.7428 Cl    444 CCL4  -0.0812 
2217 C       18.6559    -5.0758    12.9859 C.3   444 CCL4   0.3246 
2218 CL      17.4569    -6.4972    12.9692 Cl    444 CCL4  -0.0812 
2219 CL      20.1991    -5.6630    12.2230 Cl    444 CCL4  -0.0812 
2220 CL      18.0119    -3.6945    12.2362 Cl    444 CCL4  -0.0812 
2221 CL      15.1302    -6.0171    10.1587 Cl    445 CCL4  -0.0812 
2222 C       14.0056    -6.8081    11.2551 C.3   445 CCL4   0.3246 
2223 CL      14.4046    -8.4894    11.5113 Cl    445 CCL4  -0.0812 
2224 CL      12.3614    -6.6857    10.5086 Cl    445 CCL4  -0.0812 
2225 CL      13.9967    -6.0483    12.8794 Cl    445 CCL4  -0.0812 
2226 CL      19.8577    -5.7849     5.7960 Cl    446 CCL4  -0.0812 
2227 C       18.8662    -4.9547     7.0750 C.3   446 CCL4   0.3246 
2228 CL      18.9440    -5.6327     8.6725 Cl    446 CCL4  -0.0812 
2229 CL      17.1403    -4.8593     6.6922 Cl    446 CCL4  -0.0812 
2230 CL      19.4762    -3.2591     7.1096 Cl    446 CCL4  -0.0812 
2231 CL      21.3083    -7.3323     0.3839 Cl    447 CCL4  -0.0812 
2232 C       20.6710    -6.2438     1.6726 C.3   447 CCL4   0.3246 
2233 CL      19.3486    -6.9656     2.6552 Cl    447 CCL4  -0.0812 
2234 CL      20.1251    -4.7929     0.8454 Cl    447 CCL4  -0.0812 
2235 CL      22.0272    -5.7126     2.6244 Cl    447 CCL4  -0.0812 
2236 CL      15.0251   -12.5295     1.6671 Cl    448 CCL4  -0.0812 
2237 C       15.5374   -11.0776     0.9054 C.3   448 CCL4   0.3246 
2238 CL      15.3370    -9.7342     1.9870 Cl    448 CCL4  -0.0812 
2239 CL      14.6920   -10.6677    -0.5688 Cl    448 CCL4  -0.0812 
2240 CL      17.3238   -11.1126     0.5899 Cl    448 CCL4  -0.0812 
2241 CL      15.4935    -5.2623     2.4136 Cl    449 CCL4  -0.0812 
2242 C       15.4390    -5.8386     0.7694 C.3   449 CCL4   0.3246 
2243 CL      15.5457    -4.5287    -0.4223 Cl    449 CCL4  -0.0812 
2244 CL      13.8970    -6.5891     0.6258 Cl    449 CCL4  -0.0812 
2245 CL      16.8316    -6.8704     0.4353 Cl    449 CCL4  -0.0812 
2246 CL      12.4261    -4.0291     4.1578 Cl    450 CCL4  -0.0812 
2247 C       12.0237    -4.1566     5.9667 C.3   450 CCL4   0.3246 
2248 CL      11.2134    -5.7703     6.1532 Cl    450 CCL4  -0.0812 
2249 CL      10.6997    -2.9970     6.3051 Cl    450 CCL4  -0.0812 
2250 CL      13.4621    -4.1437     6.9236 Cl    450 CCL4  -0.0812 
2251 CL      14.8228   -10.5719     5.9105 Cl    451 CCL4  -0.0812 
2252 C       15.0835    -8.8594     5.8154 C.3   451 CCL4   0.3246 
2253 CL      13.9615    -8.0046     4.8512 Cl    451 CCL4  -0.0812 
2254 CL      16.8069    -8.6618     5.0441 Cl    451 CCL4  -0.0812 
2255 CL      15.3223    -8.1775     7.4740 Cl    451 CCL4  -0.0812 
2256 CL      10.9607    -9.8399     4.3423 Cl    452 CCL4  -0.0812 
2257 C       10.6294    -9.0714     2.7691 C.3   452 CCL4   0.3246 
2258 CL       8.9903    -9.2721     2.2369 Cl    452 CCL4  -0.0812 
2259 CL      11.6306    -9.7355     1.5159 Cl    452 CCL4  -0.0812 
2260 CL      10.8546    -7.3441     2.9209 Cl    452 CCL4  -0.0812 
2261 CL      11.0634    -8.7332    17.5256 Cl    453 CCL4  -0.0812 
2262 C       10.9725    -7.8705    15.9684 C.3   453 CCL4   0.3246 
2263 CL      11.8008    -6.2296    15.9645 Cl    453 CCL4  -0.0812 
2264 CL       9.2454    -7.3554    15.7941 Cl    453 CCL4  -0.0812 
2265 CL      11.5699    -8.8364    14.5678 Cl    453 CCL4  -0.0812 
2266 CL      12.1042   -12.2146    16.2955 Cl    454 CCL4  -0.0812 
2267 C       13.1880   -12.8127    15.0265 C.3   454 CCL4   0.3246 
2268 CL      12.2416   -14.1443    14.3224 Cl    454 CCL4  -0.0812 
2269 CL      14.5201   -13.6647    15.8399 Cl    454 CCL4  -0.0812 
2270 CL      13.6957   -11.5614    13.8587 Cl    454 CCL4  -0.0812 
2271 CL      10.8683    13.0691   -17.3444 Cl    455 CCL4  -0.0812 
2272 C       10.6340    14.7106   -16.6802 C.3   455 CCL4   0.3246 
2273 CL       9.1392    15.3375   -17.3884 Cl    455 CCL4  -0.0812 
2274 CL      12.0569    15.7671   -16.9027 Cl    455 CCL4  -0.0812 
2275 CL      10.4223    14.4998   -14.9168 Cl    455 CCL4  -0.0812 
2276 CL      20.4099     1.9453   -14.6975 Cl    456 CCL4  -0.0812 
2277 C       19.8120     2.9632   -16.0927 C.3   456 CCL4   0.3246 
2278 CL      18.5735     2.1844   -17.1753 Cl    456 CCL4  -0.0812 
2279 CL      21.1896     3.5240   -17.0918 Cl    456 CCL4  -0.0812 
2280 CL      19.0812     4.5019   -15.3522 Cl    456 CCL4  -0.0812 
2281 CL      14.6782    13.4214   -15.4507 Cl    457 CCL4  -0.0812 
2282 C       14.9645    11.6664   -15.3235 C.3   457 CCL4   0.3246 
2283 CL      14.7197    11.1513   -13.6327 Cl    457 CCL4  -0.0812 
2284 CL      16.5036    11.0670   -15.8870 Cl    457 CCL4  -0.0812 
2285 CL      13.7104    10.8533   -16.2914 Cl    457 CCL4  -0.0812 
2286 CL      18.4501     0.5140    -0.9060 Cl    458 CCL4  -0.0812 
2287 C       19.6325     0.9222     0.3864 C.3   458 CCL4   0.3246 
2288 CL      20.1007    -0.6286     1.0355 Cl    458 CCL4  -0.0812 
2289 CL      18.6766     1.7988     1.6076 Cl    458 CCL4  -0.0812 
2290 CL      20.9866     1.8199    -0.1773 Cl    458 CCL4  -0.0812 
2291 CL      21.7829     5.5735    -0.4372 Cl    459 CCL4  -0.0812 
2292 C       20.1111     6.1708    -0.5641 C.3   459 CCL4   0.3246 
2293 CL      19.7553     6.4228    -2.3577 Cl    459 CCL4  -0.0812 
2294 CL      19.7816     7.6944     0.2756 Cl    459 CCL4  -0.0812 
2295 CL      18.8773     4.9478    -0.1392 Cl    459 CCL4  -0.0812 
2296 CL      20.1240    10.5037   -15.6180 Cl    460 CCL4  -0.0812 
2297 C       19.6155     8.7764   -15.4018 C.3   460 CCL4   0.3246 
2298 CL      21.0425     7.8330   -14.9376 Cl    460 CCL4  -0.0812 
2299 CL      18.9544     8.0937   -16.8542 Cl    460 CCL4  -0.0812 
2300 CL      18.5198     8.6611   -13.9509 Cl    460 CCL4  -0.0812 
2301 CL      15.0184     2.6261   -19.5145 Cl    461 CCL4  -0.0812 
2302 C       13.2370     2.1002   -19.3653 C.3   461 CCL4   0.3246 
2303 CL      13.2216     0.4071   -19.1590 Cl    461 CCL4  -0.0812 
2304 CL      12.2677     2.5319   -20.8530 Cl    461 CCL4  -0.0812 
2305 CL      12.5755     3.0300   -17.9424 Cl    461 CCL4  -0.0812 
2306 CL      19.2076     2.5371   -11.6108 Cl    462 CCL4  -0.0812 
2307 C       18.7068     0.9013   -11.2554 C.3   462 CCL4   0.3246 
2308 CL      19.9393    -0.2292   -11.7985 Cl    462 CCL4  -0.0812 
2309 CL      17.2693     0.4920   -12.2096 Cl    462 CCL4  -0.0812 
2310 CL      18.3773     0.7384    -9.5689 Cl    462 CCL4  -0.0812 
2311 CL      15.5305     3.2605   -15.6726 Cl    463 CCL4  -0.0812 
2312 C       14.7866     3.7511   -14.1214 C.3   463 CCL4   0.3246 
2313 CL      16.0105     4.2398   -13.0486 Cl    463 CCL4  -0.0812 
2314 CL      13.9097     2.3375   -13.5054 Cl    463 CCL4  -0.0812 
2315 CL      13.5960     5.0938   -14.4262 Cl    463 CCL4  -0.0812 
2316 CL      17.5783    10.6851    -0.0364 Cl    464 CCL4  -0.0812 
2317 C       17.2723    10.8353    -1.7416 C.3   464 CCL4   0.3246 
2318 CL      18.3427    12.0035    -2.5246 Cl    464 CCL4  -0.0812 
2319 CL      15.6019    11.3082    -2.0895 Cl    464 CCL4  -0.0812 
2320 CL      17.4370     9.2131    -2.5577 Cl    464 CCL4  -0.0812 
2321 CL      10.4769    12.2754     0.3523 Cl    465 CCL4  -0.0812 
2322 C       11.1792    11.2776    -1.0036 C.3   465 CCL4   0.3246 
2323 CL      12.5629    10.4416    -0.3293 Cl    465 CCL4  -0.0812 
2324 CL      11.7341    12.4548    -2.1738 Cl    465 CCL4  -0.0812 
2325 CL      10.0628    10.1098    -1.6149 Cl    465 CCL4  -0.0812 
2326 CL      16.4034     5.5222   -18.4349 Cl    466 CCL4  -0.0812 
2327 C       15.3892     6.7616   -17.7110 C.3   466 CCL4   0.3246 
2328 CL      15.7186     8.2866   -18.5546 Cl    466 CCL4  -0.0812 
2329 CL      16.0101     7.0055   -15.9929 Cl    466 CCL4  -0.0812 
2330 CL      13.7138     6.2351   -17.7383 Cl    466 CCL4  -0.0812 
2331 CL      15.0156     4.9938    -7.0505 Cl    467 CCL4  -0.0812 
2332 C       15.4878     3.5278    -8.0403 C.3   467 CCL4   0.3246 
2333 CL      13.9438     3.0111    -8.7931 Cl    467 CCL4  -0.0812 
2334 CL      16.2653     2.2076    -7.0613 Cl    467 CCL4  -0.0812 
2335 CL      16.5672     4.1128    -9.2975 Cl    467 CCL4  -0.0812 
2336 CL      10.8657     2.1686    -4.7674 Cl    468 CCL4  -0.0812 
2337 C       11.6327     0.5890    -5.1913 C.3   468 CCL4   0.3246 
2338 CL      10.2250    -0.4573    -5.5381 Cl    468 CCL4  -0.0812 
2339 CL      12.4631     0.1049    -3.7105 Cl    468 CCL4  -0.0812 
2340 CL      12.7926     0.5231    -6.5122 Cl    468 CCL4  -0.0812 
2341 CL      19.6976    11.8751   -12.0726 Cl    469 CCL4  -0.0812 
2342 C       18.1236    12.1528   -11.2031 C.3   469 CCL4   0.3246 
2343 CL      18.3968    13.1008    -9.7707 Cl    469 CCL4  -0.0812 
2344 CL      17.4222    10.5355   -10.7576 Cl    469 CCL4  -0.0812 
2345 CL      17.0937    13.0348   -12.2548 Cl    469 CCL4  -0.0812 
2346 CL      21.5230     5.3787    -6.0993 Cl    470 CCL4  -0.0812 
2347 C       20.4926     4.3972    -7.0614 C.3   470 CCL4   0.3246 
2348 CL      20.0140     5.2683    -8.5335 Cl    470 CCL4  -0.0812 
2349 CL      19.0822     4.0404    -6.0915 Cl    470 CCL4  -0.0812 
2350 CL      21.2920     2.9142    -7.4752 Cl    470 CCL4  -0.0812 
2351 CL      15.7911     8.3010    -5.3258 Cl    471 CCL4  -0.0812 
2352 C       17.2761     8.5884    -6.2690 C.3   471 CCL4   0.3246 
2353 CL      16.9051     8.2542    -7.9544 Cl    471 CCL4  -0.0812 
2354 CL      18.4786     7.5215    -5.6193 Cl    471 CCL4  -0.0812 
2355 CL      17.7022    10.3556    -6.1631 Cl    471 CCL4  -0.0812 
2356 CL      14.0930     8.0235   -12.0509 Cl    472 CCL4  -0.0812 
2357 C       12.9978     7.0612   -11.1159 C.3   472 CCL4   0.3246 
2358 CL      11.3114     7.3538   -11.5814 Cl    472 CCL4  -0.0812 
2359 CL      13.0745     7.6221    -9.4812 Cl    472 CCL4  -0.0812 
2360 CL      13.4154     5.3484   -11.2262 Cl    472 CCL4  -0.0812 
2361 CL      17.2863     2.6421    -3.7127 Cl    473 CCL4  -0.0812 
2362 C       16.0043     3.7307    -3.0839 C.3   473 CCL4   0.3246 
2363 CL      15.7773     3.1966    -1.3737 Cl    473 CCL4  -0.0812 
2364 CL      14.5566     3.6061    -4.0530 Cl    473 CCL4  -0.0812 
2365 CL      16.5291     5.4337    -3.1097 Cl    473 CCL4  -0.0812 
2366 CL       9.5035     4.0797    -0.2446 Cl    474 CCL4  -0.0812 
2367 C       11.1494     4.5319    -0.1190 C.3   474 CCL4   0.3246 
2368 CL      11.4534     6.2832     0.1033 Cl    474 CCL4  -0.0812 
2369 CL      11.9944     3.9970    -1.5950 Cl    474 CCL4  -0.0812 
2370 CL      11.9047     3.6227     1.1284 Cl    474 CCL4  -0.0812 
2371 CL      16.1475    13.9601    -4.6962 Cl    475 CCL4  -0.0812 
2372 C       14.6235    13.5506    -5.4755 C.3   475 CCL4   0.3246 
2373 CL      13.2302    14.2953    -4.7530 Cl    475 CCL4  -0.0812 
2374 CL      14.4651    11.7691    -5.5002 Cl    475 CCL4  -0.0812 
2375 CL      14.7065    14.0505    -7.1360 Cl    475 CCL4  -0.0812 
2376 CL      12.1042    12.7854    -8.7045 Cl    476 CCL4  -0.0812 
2377 C       13.1880    12.1873    -9.9735 C.3   476 CCL4   0.3246 
2378 CL      12.2416    10.8557   -10.6776 Cl    476 CCL4  -0.0812 
2379 CL      14.5201    11.3353    -9.1601 Cl    476 CCL4  -0.0812 
2380 CL      13.6957    13.4386   -11.1413 Cl    476 CCL4  -0.0812 
2381 CL      12.4427     6.7051    -5.7840 Cl    477 CCL4  -0.0812 
2382 C       12.0146     7.7066    -4.4099 C.3   477 CCL4   0.3246 
2383 CL      11.6426     9.3845    -4.8419 Cl    477 CCL4  -0.0812 
2384 CL      10.4490     7.1361    -3.7053 Cl    477 CCL4  -0.0812 
2385 CL      13.2573     7.5947    -3.1312 Cl    477 CCL4  -0.0812 
2386 CL      10.8683    13.0691     7.6556 Cl    478 CCL4  -0.0812 
2387 C       10.6340    14.7106     8.3198 C.3   478 CCL4   0.3246 
2388 CL       9.1392    15.3375     7.6116 Cl    478 CCL4  -0.0812 
2389 CL      12.0569    15.7671     8.0973 Cl    478 CCL4  -0.0812 
2390 CL      10.4223    14.4998    10.0832 Cl    478 CCL4  -0.0812 
2391 CL      20.4099     1.9453    10.3025 Cl    479 CCL4  -0.0812 
2392 C       19.8120     2.9632     8.9073 C.3   479 CCL4   0.3246 
2393 CL      18.5735     2.1844     7.8247 Cl    479 CCL4  -0.0812 
2394 CL      21.1896     3.5240     7.9082 Cl    479 CCL4  -0.0812 
2395 CL      19.0812     4.5019     9.6478 Cl    479 CCL4  -0.0812 
2396 CL      14.6782    13.4214     9.5493 Cl    480 CCL4  -0.0812 
2397 C       14.9645    11.6664     9.6765 C.3   480 CCL4   0.3246 
2398 CL      14.7197    11.1513    11.3673 Cl    480 CCL4  -0.0812 
2399 CL      16.5036    11.0670     9.1130 Cl    480 CCL4  -0.0812 
2400 CL      13.7104    10.8533     8.7086 Cl    480 CCL4  -0.0812 
2401 CL      20.1240    10.5037     9.3820 Cl    481 CCL4  -0.0812 
2402 C       19.6155     8.7764     9.5982 C.3   481 CCL4   0.3246 
2403 CL      21.0425     7.8330    10.0624 Cl    481 CCL4  -0.0812 
2404 CL      18.9544     8.0937     8.1458 Cl    481 CCL4  -0.0812 
2405 CL      18.5198     8.6611    11.0491 Cl    481 CCL4  -0.0812 
2406 CL      15.0184     2.6261     5.4855 Cl    482 CCL4  -0.0812 
2407 C       13.2370     2.1002     5.6347 C.3   482 CCL4   0.3246 
2408 CL      13.2216     0.4071     5.8410 Cl    482 CCL4  -0.0812 
2409 CL      12.2677     2.5319     4.1470 Cl    482 CCL4  -0.0812 
2410 CL      12.5755     3.0300     7.0576 Cl    482 CCL4  -0.0812 
2411 CL      19.2076     2.5371    13.3892 Cl    483 CCL4  -0.0812 
2412 C       18.7068     0.9013    13.7446 C.3   483 CCL4   0.3246 
2413 CL      19.9393    -0.2292    13.2015 Cl    483 CCL4  -0.0812 
2414 CL      17.2693     0.4920    12.7904 Cl    483 CCL4  -0.0812 
2415 CL      18.3773     0.7384    15.4311 Cl    483 CCL4  -0.0812 
2416 CL      15.5305     3.2605     9.3274 Cl    484 CCL4  -0.0812 
2417 C       14.7866     3.7511    10.8786 C.3   484 CCL4   0.3246 
2418 CL      16.0105     4.2398    11.9514 Cl    484 CCL4  -0.0812 
2419 CL      13.9097     2.3375    11.4946 Cl    484 CCL4  -0.0812 
2420 CL      13.5960     5.0938    10.5738 Cl    484 CCL4  -0.0812 
2421 CL      14.9537     6.2021     0.4155 Cl    485 CCL4  -0.0812 
2422 C       15.4253     5.6088     2.0259 C.3   485 CCL4   0.3246 
2423 CL      14.2452     6.1913     3.1850 Cl    485 CCL4  -0.0812 
2424 CL      16.9623     6.3521     2.4782 Cl    485 CCL4  -0.0812 
2425 CL      15.6303     3.8566     1.9515 Cl    485 CCL4  -0.0812 
2426 CL      18.5522    12.5914     3.6487 Cl    486 CCL4  -0.0812 
2427 C       18.1662    11.1362     4.6967 C.3   486 CCL4   0.3246 
2428 CL      16.4626    11.1615     5.3072 Cl    486 CCL4  -0.0812 
2429 CL      19.2925    10.9917     6.0953 Cl    486 CCL4  -0.0812 
2430 CL      18.5494     9.7328     3.6677 Cl    486 CCL4  -0.0812 
2431 CL      11.3830     9.1167     2.8356 Cl    487 CCL4  -0.0812 
2432 C       12.6283    10.0504     3.6715 C.3   487 CCL4   0.3246 
2433 CL      12.4383     9.5952     5.4688 Cl    487 CCL4  -0.0812 
2434 CL      12.2544    11.8449     3.7757 Cl    487 CCL4  -0.0812 
2435 CL      14.1394     9.5442     3.0817 Cl    487 CCL4  -0.0812 
2436 CL      16.4034     5.5222     6.5651 Cl    488 CCL4  -0.0812 
2437 C       15.3892     6.7616     7.2890 C.3   488 CCL4   0.3246 
2438 CL      15.7186     8.2866     6.4454 Cl    488 CCL4  -0.0812 
2439 CL      16.0101     7.0055     9.0071 Cl    488 CCL4  -0.0812 
2440 CL      13.7138     6.2351     7.2617 Cl    488 CCL4  -0.0812 
2441 CL      15.0156     4.9938    17.9495 Cl    489 CCL4  -0.0812 
2442 C       15.4878     3.5278    16.9597 C.3   489 CCL4   0.3246 
2443 CL      13.9438     3.0111    16.2069 Cl    489 CCL4  -0.0812 
2444 CL      16.2653     2.2076    17.9387 Cl    489 CCL4  -0.0812 
2445 CL      16.5672     4.1128    15.7025 Cl    489 CCL4  -0.0812 
2446 CL      19.6976    11.8751    12.9274 Cl    490 CCL4  -0.0812 
2447 C       18.1236    12.1528    13.7969 C.3   490 CCL4   0.3246 
2448 CL      18.3968    13.1008    15.2293 Cl    490 CCL4  -0.0812 
2449 CL      17.4222    10.5355    14.2424 Cl    490 CCL4  -0.0812 
2450 CL      17.0937    13.0348    12.7452 Cl    490 CCL4  -0.0812 
2451 CL      14.0930     8.0235    12.9491 Cl    491 CCL4  -0.0812 
2452 C       12.9978     7.0612    13.8841 C.3   491 CCL4   0.3246 
2453 CL      11.3114     7.3538    13.4186 Cl    491 CCL4  -0.0812 
2454 CL      13.0745     7.6221    15.5188 Cl    491 CCL4  -0.0812 
2455 CL      13.4154     5.3484    13.7738 Cl    491 CCL4  -0.0812 
2456 CL      15.0251    12.4705     1.6671 Cl    492 CCL4  -0.0812 
2457 C       15.5374    13.9224     0.9054 C.3   492 CCL4   0.3246 
2458 CL      15.3370    15.2658     1.9870 Cl    492 CCL4  -0.0812 
2459 CL      14.6920    14.3323    -0.5688 Cl    492 CCL4  -0.0812 
2460 CL      17.3238    13.8874     0.5899 Cl    492 CCL4  -0.0812 
2461 CL      14.8228    14.4281     5.9105 Cl    493 CCL4  -0.0812 
2462 C       15.0835    16.1406     5.8154 C.3   493 CCL4   0.3246 
2463 CL      13.9615    16.9954     4.8512 Cl    493 CCL4  -0.0812 
2464 CL      16.8069    16.3382     5.0441 Cl    493 CCL4  -0.0812 
2465 CL      15.3223    16.8225     7.4740 Cl    493 CCL4  -0.0812 
2466 CL      12.1042    12.7854    16.2955 Cl    494 CCL4  -0.0812 
2467 C       13.1880    12.1873    15.0265 C.3   494 CCL4   0.3246 
2468 CL      12.2416    10.8557    14.3224 Cl    494 CCL4  -0.0812 
2469 CL      14.5201    11.3353    15.8399 Cl    494 CCL4  -0.0812 
2470 CL      13.6957    13.4386    13.8587 Cl    494 CCL4  -0.0812 
@<TRIPOS>BOND
   1    1    2  1   
   2    2    3  1   
   3    2    4  1   
   4    2    5  1   
   5    6    7  1   
   6    7    8  1   
   7    7    9  1   
   8    7   10  1   
   9   11   12  1   
  10   12   13  1   
  11   12   14  1   
  12   12   15  1   
  13   16   17  1   
  14   17   18  1   
  15   17   19  1   
  16   17   20  1   
  17   21   22  1   
  18   22   23  1   
  19   22   24  1   
  20   22   25  1   
  21   26   27  1   
  22   27   28  1   
  23   27   29  1   
  24   27   30  1   
  25   31   32  1   
  26   32   33  1   
  27   32   34  1   
  28   32   35  1   
  29   36   37  1   
  30   37   38  1   
  31   37   39  1   
  32   37   40  1   
  33   41   42  1   
  34   42   43  1   
  35   42   44  1   
  36   42   45  1   
  37   46   47  1   
  38   47   48  1   
  39   47   49  1   
  40   47   50  1   
  41   51   52  1   
  42   52   53  1   
  43   52   54  1   
  44   52   55  1   
  45   56   57  1   
  46   57   58  1   
  47   57   59  1   
  48   57   60  1   
  49   61   62  1   
  50   62   63  1   
  51   62   64  1   
  52   62   65  1   
  53   66   67  1   
  54   67   68  1   
  55   67   69  1   
  56   67   70  1   
  57   71   72  1   
  58   72   73  1   
  59   72   74  1   
  60   72   75  1   
  61   76   77  1   
  62   77   78  1   
  63   77   79  1   
  64   77   80  1   
  65   81   82  1   
  66   82   83  1   
  67   82   84  1   
  68   82   85  1   
  69   86   87  1   
  70   87   88  1   
  71   87   89  1   
  72   87   90  1   
  73   91   92  1   
  74   92   93  1   
  75   92   94  1   
  76   92   95  1   
  77   96   97  1   
  78   97   98  1   
  79   97   99  1   
  80   97  100  1   
  81  101  102  1   
  82  102  103  1   
  83  102  104  1   
  84  102  105  1   
  85  106  107  1   
  86  107  108  1   
  87  107  109  1   
  88  107  110  1   
  89  111  112  1   
  90  112  113  1   
  91  112  114  1   
  92  112  115  1   
  93  116  117  1   
  94  117  118  1   
  95  117  119  1   
  96  117  120  1   
  97  121  122  1   
  98  122  123  1   
  99  122  124  1   
 100  122  125  1   
 101  126  127  1   
 102  127  128  1   
 103  127  129  1   
 104  127  130  1   
 105  131  132  1   
 106  132  133  1   
 107  132  134  1   
 108  132  135  1   
 109  136  137  1   
 110  137  138  1   
 111  137  139  1   
 112  137  140  1   
 113  141  142  1   
 114  142  143  1   
 115  142  144  1   
 116  142  145  1   
 117  146  147  1   
 118  147  148  1   
 119  147  149  1   
 120  147  150  1   
 121  151  152  1   
 122  152  153  1   
 123  152  154  1   
 124  152  155  1   
 125  156  157  1   
 126  157  158  1   
 127  157  159  1   
 128  157  160  1   
 129  161  162  1   
 130  162  163  1   
 131  162  164  1   
 132  162  165  1   
 133  166  167  1   
 134  167  168  1   
 135  167  169  1   
 136  167  170  1   
 137  171  172  1   
 138  172  173  1   
 139  172  174  1   
 140  172  175  1   
 141  176  177  1   
 142  177  178  1   
 143  177  179  1   
 144  177  180  1   
 145  181  182  1   
 146  182  183  1   
 147  182  184  1   
 148  182  185  1   
 149  186  187  1   
 150  187  188  1   
 151  187  189  1   
 152  187  190  1   
 153  191  192  1   
 154  192  193  1   
 155  192  194  1   
 156  192  195  1   
 157  196  197  1   
 158  197  198  1   
 159  197  199  1   
 160  197  200  1   
 161  201  202  1   
 162  202  203  1   
 163  202  204  1   
 164  202  205  1   
 165  206  207  1   
 166  207  208  1   
 167  207  209  1   
 168  207  210  1   
 169  211  212  1   
 170  212  213  1   
 171  212  214  1   
 172  212  215  1   
 173  216  217  1   
 174  217  218  1   
 175  217  219  1   
 176  217  220  1   
 177  221  222  1   
 178  222  223  1   
 179  222  224  1   
 180  222  225  1   
 181  226  227  1   
 182  227  228  1   
 183  227  229  1   
 184  227  230  1   
 185  231  232  1   
 186  232  233  1   
 187  232  234  1   
 188  232  235  1   
 189  236  237  1   
 190  237  238  1   
 191  237  239  1   
 192  237  240  1   
 193  241  242  1   
 194  242  243  1   
 195  242  244  1   
 196  242  245  1   
 197  246  247  1   
 198  247  248  1   
 199  247  249  1   
 200  247  250  1   
 201  251  252  1   
 202  252  253  1   
 203  252  254  1   
 204  252  255  1   
 205  256  257  1   
 206  257  258  1   
 207  257  259  1   
 208  257  260  1   
 209  261  262  1   
 210  262  263  1   
 211  262  264  1   
 212  262  265  1   
 213  266  267  1   
 214  267  268  1   
 215  267  269  1   
 216  267  270  1   
 217  271  272  1   
 218  272  273  1   
 219  272  274  1   
 220  272  275  1   
 221  276  277  1   
 222  277  278  1   
 223  277  279  1   
 224  277  280  1   
 225  281  282  1   
 226  282  283  1   
 227  282  284  1   
 228  282  285  1   
 229  286  287  1   
 230  287  288  1   
 231  287  289  1   
 232  287  290  1   
 233  291  292  1   
 234  292  293  1   
 235  292  294  1   
 236  292  295  1   
 237  296  297  1   
 238  297  298  1   
 239  297  299  1   
 240  297  300  1   
 241  301  302  1   
 242  302  303  1   
 243  302  304  1   
 244  302  305  1   
 245  306  307  1   
 246  307  308  1   
 247  307  309  1   
 248  307  310  1   
 249  311  312  1   
 250  312  313  1   
 251  312  314  1   
 252  312  315  1   
 253  316  317  1   
 254  317  318  1   
 255  317  319  1   
 256  317  320  1   
 257  321  322  1   
 258  322  323  1   
 259  322  324  1   
 260  322  325  1   
 261  326  327  1   
 262  327  328  1   
 263  327  329  1   
 264  327  330  1   
 265  331  332  1   
 266  332  333  1   
 267  332  334  1   
 268  332  335  1   
 269  336  337  1   
 270  337  338  1   
 271  337  339  1   
 272  337  340  1   
 273  341  342  1   
 274  342  343  1   
 275  342  344  1   
 276  342  345  1   
 277  346  347  1   
 278  347  348  1   
 279  347  349  1   
 280  347  350  1   
 281  351  352  1   
 282  352  353  1   
 283  352  354  1   
 284  352  355  1   
 285  356  357  1   
 286  357  358  1   
 287  357  359  1   
 288  357  360  1   
 289  361  362  1   
 290  362  363  1   
 291  362  364  1   
 292  362  365  1   
 293  366  367  1   
 294  367  368  1   
 295  367  369  1   
 296  367  370  1   
 297  371  372  1   
 298  372  373  1   
 299  372  374  1   
 300  372  375  1   
 301  376  377  1   
 302  377  378  1   
 303  377  379  1   
 304  377  380  1   
 305  381  382  1   
 306  382  383  1   
 307  382  384  1   
 308  382  385  1   
 309  386  387  1   
 310  387  388  1   
 311  387  389  1   
 312  387  390  1   
 313  391  392  1   
 314  392  393  1   
 315  392  394  1   
 316  392  395  1   
 317  396  397  1   
 318  397  398  1   
 319  397  399  1   
 320  397  400  1   
 321  401  402  1   
 322  402  403  1   
 323  402  404  1   
 324  402  405  1   
 325  406  407  1   
 326  407  408  1   
 327  407  409  1   
 328  407  410  1   
 329  411  412  1   
 330  412  413  1   
 331  412  414  1   
 332  412  415  1   
 333  416  417  1   
 334  417  418  1   
 335  417  419  1   
 336  417  420  1   
 337  421  422  1   
 338  422  423  1   
 339  422  424  1   
 340  422  425  1   
 341  426  427  1   
 342  427  428  1   
 343  427  429  1   
 344  427  430  1   
 345  431  432  1   
 346  432  433  1   
 347  432  434  1   
 348  432  435  1   
 349  436  437  1   
 350  437  438  1   
 351  437  439  1   
 352  437  440  1   
 353  441  442  1   
 354  442  443  1   
 355  442  444  1   
 356  442  445  1   
 357  446  447  1   
 358  447  448  1   
 359  447  449  1   
 360  447  450  1   
 361  451  452  1   
 362  452  453  1   
 363  452  454  1   
 364  452  455  1   
 365  456  457  1   
 366  457  458  1   
 367  457  459  1   
 368  457  460  1   
 369  461  462  1   
 370  462  463  1   
 371  462  464  1   
 372  462  465  1   
 373  466  467  1   
 374  467  468  1   
 375  467  469  1   
 376  467  470  1   
 377  471  472  1   
 378  472  473  1   
 379  472  474  1   
 380  472  475  1   
 381  476  477  1   
 382  477  478  1   
 383  477  479  1   
 384  477  480  1   
 385  481  482  1   
 386  482  483  1   
 387  482  484  1   
 388  482  485  1   
 389  486  487  1   
 390  487  488  1   
 391  487  489  1   
 392  487  490  1   
 393  491  492  1   
 394  492  493  1   
 395  492  494  1   
 396  492  495  1   
 397  496  497  1   
 398  497  498  1   
 399  497  499  1   
 400  497  500  1   
 401  501  502  1   
 402  502  503  1   
 403  502  504  1   
 404  502  505  1   
 405  506  507  1   
 406  507  508  1   
 407  507  509  1   
 408  507  510  1   
 409  511  512  1   
 410  512  513  1   
 411  512  514  1   
 412  512  515  1   
 413  516  517  1   
 414  517  518  1   
 415  517  519  1   
 416  517  520  1   
 417  521  522  1   
 418  522  523  1   
 419  522  524  1   
 420  522  525  1   
 421  526  527  1   
 422  527  528  1   
 423  527  529  1   
 424  527  530  1   
 425  531  532  1   
 426  532  533  1   
 427  532  534  1   
 428  532  535  1   
 429  536  537  1   
 430  537  538  1   
 431  537  539  1   
 432  537  540  1   
 433  541  542  1   
 434  542  543  1   
 435  542  544  1   
 436  542  545  1   
 437  546  547  1   
 438  547  548  1   
 439  547  549  1   
 440  547  550  1   
 441  551  552  1   
 442  552  553  1   
 443  552  554  1   
 444  552  555  1   
 445  556  557  1   
 446  557  558  1   
 447  557  559  1   
 448  557  560  1   
 449  561  562  1   
 450  562  563  1   
 451  562  564  1   
 452  562  565  1   
 453  566  567  1   
 454  567  568  1   
 455  567  569  1   
 456  567  570  1   
 457  571  572  1   
 458  572  573  1   
 459  572  574  1   
 460  572  575  1   
 461  576  577  1   
 462  577  578  1   
 463  577  579  1   
 464  577  580  1   
 465  581  582  1   
 466  582  583  1   
 467  582  584  1   
 468  582  585  1   
 469  586  587  1   
 470  587  588  1   
 471  587  589  1   
 472  587  590  1   
 473  591  592  1   
 474  592  593  1   
 475  592  594  1   
 476  592  595  1   
 477  596  597  1   
 478  597  598  1   
 479  597  599  1   
 480  597  600  1   
 481  601  602  1   
 482  602  603  1   
 483  602  604  1   
 484  602  605  1   
 485  606  607  1   
 486  607  608  1   
 487  607  609  1   
 488  607  610  1   
 489  611  612  1   
 490  612  613  1   
 491  612  614  1   
 492  612  615  1   
 493  616  617  1   
 494  617  618  1   
 495  617  619  1   
 496  617  620  1   
 497  621  622  1   
 498  622  623  1   
 499  622  624  1   
 500  622  625  1   
 501  626  627  1   
 502  627  628  1   
 503  627  629  1   
 504  627  630  1   
 505  631  632  1   
 506  632  633  1   
 507  632  634  1   
 508  632  635  1   
 509  636  637  1   
 510  637  638  1   
 511  637  639  1   
 512  637  640  1   
 513  641  642  1   
 514  642  643  1   
 515  642  644  1   
 516  642  645  1   
 517  646  647  1   
 518  647  648  1   
 519  647  649  1   
 520  647  650  1   
 521  651  652  1   
 522  652  653  1   
 523  652  654  1   
 524  652  655  1   
 525  656  657  1   
 526  657  658  1   
 527  657  659  1   
 528  657  660  1   
 529  661  662  1   
 530  662  663  1   
 531  662  664  1   
 532  662  665  1   
 533  666  667  1   
 534  667  668  1   
 535  667  669  1   
 536  667  670  1   
 537  671  672  1   
 538  672  673  1   
 539  672  674  1   
 540  672  675  1   
 541  676  677  1   
 542  677  678  1   
 543  677  679  1   
 544  677  680  1   
 545  681  682  1   
 546  682  683  1   
 547  682  684  1   
 548  682  685  1   
 549  686  687  1   
 550  687  688  1   
 551  687  689  1   
 552  687  690  1   
 553  691  692  1   
 554  692  693  1   
 555  692  694  1   
 556  692  695  1   
 557  696  697  1   
 558  697  698  1   
 559  697  699  1   
 560  697  700  1   
 561  701  702  1   
 562  702  703  1   
 563  702  704  1   
 564  702  705  1   
 565  706  707  1   
 566  707  708  1   
 567  707  709  1   
 568  707  710  1   
 569  711  712  1   
 570  712  713  1   
 571  712  714  1   
 572  712  715  1   
 573  716  717  1   
 574  717  718  1   
 575  717  719  1   
 576  717  720  1   
 577  721  722  1   
 578  722  723  1   
 579  722  724  1   
 580  722  725  1   
 581  726  727  1   
 582  727  728  1   
 583  727  729  1   
 584  727  730  1   
 585  731  732  1   
 586  732  733  1   
 587  732  734  1   
 588  732  735  1   
 589  736  737  1   
 590  737  738  1   
 591  737  739  1   
 592  737  740  1   
 593  741  742  1   
 594  742  743  1   
 595  742  744  1   
 596  742  745  1   
 597  746  747  1   
 598  747  748  1   
 599  747  749  1   
 600  747  750  1   
 601  751  752  1   
 602  752  753  1   
 603  752  754  1   
 604  752  755  1   
 605  756  757  1   
 606  757  758  1   
 607  757  759  1   
 608  757  760  1   
 609  761  762  1   
 610  762  763  1   
 611  762  764  1   
 612  762  765  1   
 613  766  767  1   
 614  767  768  1   
 615  767  769  1   
 616  767  770  1   
 617  771  772  1   
 618  772  773  1   
 619  772  774  1   
 620  772  775  1   
 621  776  777  1   
 622  777  778  1   
 623  777  779  1   
 624  777  780  1   
 625  781  782  1   
 626  782  783  1   
 627  782  784  1   
 628  782  785  1   
 629  786  787  1   
 630  787  788  1   
 631  787  789  1   
 632  787  790  1   
 633  791  792  1   
 634  792  793  1   
 635  792  794  1   
 636  792  795  1   
 637  796  797  1   
 638  797  798  1   
 639  797  799  1   
 640  797  800  1   
 641  801  802  1   
 642  802  803  1   
 643  802  804  1   
 644  802  805  1   
 645  806  807  1   
 646  807  808  1   
 647  807  809  1   
 648  807  810  1   
 649  811  812  1   
 650  812  813  1   
 651  812  814  1   
 652  812  815  1   
 653  816  817  1   
 654  817  818  1   
 655  817  819  1   
 656  817  820  1   
 657  821  822  1   
 658  822  823  1   
 659  822  824  1   
 660  822  825  1   
 661  826  827  1   
 662  827  828  1   
 663  827  829  1   
 664  827  830  1   
 665  831  832  1   
 666  832  833  1   
 667  832  834  1   
 668  832  835  1   
 669  836  837  1   
 670  837  838  1   
 671  837  839  1   
 672  837  840  1   
 673  841  842  1   
 674  842  843  1   
 675  842  844  1   
 676  842  845  1   
 677  846  847  1   
 678  847  848  1   
 679  847  849  1   
 680  847  850  1   
 681  851  852  1   
 682  852  853  1   
 683  852  854  1   
 684  852  855  1   
 685  856  857  1   
 686  857  858  1   
 687  857  859  1   
 688  857  860  1   
 689  861  862  1   
 690  862  863  1   
 691  862  864  1   
 692  862  865  1   
 693  866  867  1   
 694  867  868  1   
 695  867  869  1   
 696  867  870  1   
 697  871  872  1   
 698  872  873  1   
 699  872  874  1   
 700  872  875  1   
 701  876  877  1   
 702  877  878  1   
 703  877  879  1   
 704  877  880  1   
 705  881  882  1   
 706  882  883  1   
 707  882  884  1   
 708  882  885  1   
 709  886  887  1   
 710  887  888  1   
 711  887  889  1   
 712  887  890  1   
 713  891  892  1   
 714  892  893  1   
 715  892  894  1   
 716  892  895  1   
 717  896  897  1   
 718  897  898  1   
 719  897  899  1   
 720  897  900  1   
 721  901  902  1   
 722  902  903  1   
 723  902  904  1   
 724  902  905  1   
 725  906  907  1   
 726  907  908  1   
 727  907  909  1   
 728  907  910  1   
 729  911  912  1   
 730  912  913  1   
 731  912  914  1   
 732  912  915  1   
 733  916  917  1   
 734  917  918  1   
 735  917  919  1   
 736  917  920  1   
 737  921  922  1   
 738  922  923  1   
 739  922  924  1   
 740  922  925  1   
 741  926  927  1   
 742  927  928  1   
 743  927  929  1   
 744  927  930  1   
 745  931  932  1   
 746  932  933  1   
 747  932  934  1   
 748  932  935  1   
 749  936  937  1   
 750  937  938  1   
 751  937  939  1   
 752  937  940  1   
 753  941  942  1   
 754  942  943  1   
 755  942  944  1   
 756  942  945  1   
 757  946  947  1   
 758  947  948  1   
 759  947  949  1   
 760  947  950  1   
 761  951  952  1   
 762  952  953  1   
 763  952  954  1   
 764  952  955  1   
 765  956  957  1   
 766  957  958  1   
 767  957  959  1   
 768  957  960  1   
 769  961  962  1   
 770  962  963  1   
 771  962  964  1   
 772  962  965  1   
 773  966  967  1   
 774  967  968  1   
 775  967  969  1   
 776  967  970  1   
 777  971  972  1   
 778  972  973  1   
 779  972  974  1   
 780  972  975  1   
 781  976  977  1   
 782  977  978  1   
 783  977  979  1   
 784  977  980  1   
 785  981  982  1   
 786  982  983  1   
 787  982  984  1   
 788  982  985  1   
 789  986  987  1   
 790  987  988  1   
 791  987  989  1   
 792  987  990  1   
 793  991  992  1   
 794  992  993  1   
 795  992  994  1   
 796  992  995  1   
 797  996  997  1   
 798  997  998  1   
 799  997  999  1   
 800  997 1000  1   
 801 1001 1002  1   
 802 1002 1003  1   
 803 1002 1004  1   
 804 1002 1005  1   
 805 1006 1007  1   
 806 1007 1008  1   
 807 1007 1009  1   
 808 1007 1010  1   
 809 1011 1012  1   
 810 1012 1013  1   
 811 1012 1014  1   
 812 1012 1015  1   
 813 1016 1017  1   
 814 1017 1018  1   
 815 1017 1019  1   
 816 1017 1020  1   
 817 1021 1022  1   
 818 1022 1023  1   
 819 1022 1024  1   
 820 1022 1025  1   
 821 1026 1027  1   
 822 1027 1028  1   
 823 1027 1029  1   
 824 1027 1030  1   
 825 1031 1032  1   
 826 1032 1033  1   
 827 1032 1034  1   
 828 1032 1035  1   
 829 1036 1037  1   
 830 1037 1038  1   
 831 1037 1039  1   
 832 1037 1040  1   
 833 1041 1042  1   
 834 1042 1043  1   
 835 1042 1044  1   
 836 1042 1045  1   
 837 1046 1047  1   
 838 1047 1048  1   
 839 1047 1049  1   
 840 1047 1050  1   
 841 1051 1052  1   
 842 1052 1053  1   
 843 1052 1054  1   
 844 1052 1055  1   
 845 1056 1057  1   
 846 1057 1058  1   
 847 1057 1059  1   
 848 1057 1060  1   
 849 1061 1062  1   
 850 1062 1063  1   
 851 1062 1064  1   
 852 1062 1065  1   
 853 1066 1067  1   
 854 1067 1068  1   
 855 1067 1069  1   
 856 1067 1070  1   
 857 1071 1072  1   
 858 1072 1073  1   
 859 1072 1074  1   
 860 1072 1075  1   
 861 1076 1077  1   
 862 1077 1078  1   
 863 1077 1079  1   
 864 1077 1080  1   
 865 1081 1082  1   
 866 1082 1083  1   
 867 1082 1084  1   
 868 1082 1085  1   
 869 1086 1087  1   
 870 1087 1088  1   
 871 1087 1089  1   
 872 1087 1090  1   
 873 1091 1092  1   
 874 1092 1093  1   
 875 1092 1094  1   
 876 1092 1095  1   
 877 1096 1097  1   
 878 1097 1098  1   
 879 1097 1099  1   
 880 1097 1100  1   
 881 1101 1102  1   
 882 1102 1103  1   
 883 1102 1104  1   
 884 1102 1105  1   
 885 1106 1107  1   
 886 1107 1108  1   
 887 1107 1109  1   
 888 1107 1110  1   
 889 1111 1112  1   
 890 1112 1113  1   
 891 1112 1114  1   
 892 1112 1115  1   
 893 1116 1117  1   
 894 1117 1118  1   
 895 1117 1119  1   
 896 1117 1120  1   
 897 1121 1122  1   
 898 1122 1123  1   
 899 1122 1124  1   
 900 1122 1125  1   
 901 1126 1127  1   
 902 1127 1128  1   
 903 1127 1129  1   
 904 1127 1130  1   
 905 1131 1132  1   
 906 1132 1133  1   
 907 1132 1134  1   
 908 1132 1135  1   
 909 1136 1137  1   
 910 1137 1138  1   
 911 1137 1139  1   
 912 1137 1140  1   
 913 1141 1142  1   
 914 1142 1143  1   
 915 1142 1144  1   
 916 1142 1145  1   
 917 1146 1147  1   
 918 1147 1148  1   
 919 1147 1149  1   
 920 1147 1150  1   
 921 1151 1152  1   
 922 1152 1153  1   
 923 1152 1154  1   
 924 1152 1155  1   
 925 1156 1157  1   
 926 1157 1158  1   
 927 1157 1159  1   
 928 1157 1160  1   
 929 1161 1162  1   
 930 1162 1163  1   
 931 1162 1164  1   
 932 1162 1165  1   
 933 1166 1167  1   
 934 1167 1168  1   
 935 1167 1169  1   
 936 1167 1170  1   
 937 1171 1172  1   
 938 1172 1173  1   
 939 1172 1174  1   
 940 1172 1175  1   
 941 1176 1177  1   
 942 1177 1178  1   
 943 1177 1179  1   
 944 1177 1180  1   
 945 1181 1182  1   
 946 1182 1183  1   
 947 1182 1184  1   
 948 1182 1185  1   
 949 1186 1187  1   
 950 1187 1188  1   
 951 1187 1189  1   
 952 1187 1190  1   
 953 1191 1192  1   
 954 1192 1193  1   
 955 1192 1194  1   
 956 1192 1195  1   
 957 1196 1197  1   
 958 1197 1198  1   
 959 1197 1199  1   
 960 1197 1200  1   
 961 1201 1202  1   
 962 1202 1203  1   
 963 1202 1204  1   
 964 1202 1205  1   
 965 1206 1207  1   
 966 1207 1208  1   
 967 1207 1209  1   
 968 1207 1210  1   
 969 1211 1212  1   
 970 1212 1213  1   
 971 1212 1214  1   
 972 1212 1215  1   
 973 1216 1217  1   
 974 1217 1218  1   
 975 1217 1219  1   
 976 1217 1220  1   
 977 1221 1222  1   
 978 1222 1223  1   
 979 1222 1224  1   
 980 1222 1225  1   
 981 1226 1227  1   
 982 1227 1228  1   
 983 1227 1229  1   
 984 1227 1230  1   
 985 1231 1232  1   
 986 1232 1233  1   
 987 1232 1234  1   
 988 1232 1235  1   
 989 1236 1237  1   
 990 1237 1238  1   
 991 1237 1239  1   
 992 1237 1240  1   
 993 1241 1242  1   
 994 1242 1243  1   
 995 1242 1244  1   
 996 1242 1245  1   
 997 1246 1247  1   
 998 1247 1248  1   
 999 1247 1249  1   
1000 1247 1250  1   
1001 1251 1252  1   
1002 1252 1253  1   
1003 1252 1254  1   
1004 1252 1255  1   
1005 1256 1257  1   
1006 1257 1258  1   
1007 1257 1259  1   
1008 1257 1260  1   
1009 1261 1262  1   
1010 1262 1263  1   
1011 1262 1264  1   
1012 1262 1265  1   
1013 1266 1267  1   
1014 1267 1268  1   
1015 1267 1269  1   
1016 1267 1270  1   
1017 1271 1272  1   
1018 1272 1273  1   
1019 1272 1274  1   
1020 1272 1275  1   
1021 1276 1277  1   
1022 1277 1278  1   
1023 1277 1279  1   
1024 1277 1280  1   
1025 1281 1282  1   
1026 1282 1283  1   
1027 1282 1284  1   
1028 1282 1285  1   
1029 1286 1287  1   
1030 1287 1288  1   
1031 1287 1289  1   
1032 1287 1290  1   
1033 1291 1292  1   
1034 1292 1293  1   
1035 1292 1294  1   
1036 1292 1295  1   
1037 1296 1297  1   
1038 1297 1298  1   
1039 1297 1299  1   
1040 1297 1300  1   
1041 1301 1302  1   
1042 1302 1303  1   
1043 1302 1304  1   
1044 1302 1305  1   
1045 1306 1307  1   
1046 1307 1308  1   
1047 1307 1309  1   
1048 1307 1310  1   
1049 1311 1312  1   
1050 1312 1313  1   
1051 1312 1314  1   
1052 1312 1315  1   
1053 1316 1317  1   
1054 1317 1318  1   
1055 1317 1319  1   
1056 1317 1320  1   
1057 1321 1322  1   
1058 1322 1323  1   
1059 1322 1324  1   
1060 1322 1325  1   
1061 1326 1327  1   
1062 1327 1328  1   
1063 1327 1329  1   
1064 1327 1330  1   
1065 1331 1332  1   
1066 1332 1333  1   
1067 1332 1334  1   
1068 1332 1335  1   
1069 1336 1337  1   
1070 1337 1338  1   
1071 1337 1339  1   
1072 1337 1340  1   
1073 1341 1342  1   
1074 1342 1343  1   
1075 1342 1344  1   
1076 1342 1345  1   
1077 1346 1347  1   
1078 1347 1348  1   
1079 1347 1349  1   
1080 1347 1350  1   
1081 1351 1352  1   
1082 1352 1353  1   
1083 1352 1354  1   
1084 1352 1355  1   
1085 1356 1357  1   
1086 1357 1358  1   
1087 1357 1359  1   
1088 1357 1360  1   
1089 1361 1362  1   
1090 1362 1363  1   
1091 1362 1364  1   
1092 1362 1365  1   
1093 1366 1367  1   
1094 1367 1368  1   
1095 1367 1369  1   
1096 1367 1370  1   
1097 1371 1372  1   
1098 1372 1373  1   
1099 1372 1374  1   
1100 1372 1375  1   
1101 1376 1377  1   
1102 1377 1378  1   
1103 1377 1379  1   
1104 1377 1380  1   
1105 1381 1382  1   
1106 1382 1383  1   
1107 1382 1384  1   
1108 1382 1385  1   
1109 1386 1387  1   
1110 1387 1388  1   
1111 1387 1389  1   
1112 1387 1390  1   
1113 1391 1392  1   
1114 1392 1393  1   
1115 1392 1394  1   
1116 1392 1395  1   
1117 1396 1397  1   
1118 1397 1398  1   
1119 1397 1399  1   
1120 1397 1400  1   
1121 1401 1402  1   
1122 1402 1403  1   
1123 1402 1404  1   
1124 1402 1405  1   
1125 1406 1407  1   
1126 1407 1408  1   
1127 1407 1409  1   
1128 1407 1410  1   
1129 1411 1412  1   
1130 1412 1413  1   
1131 1412 1414  1   
1132 1412 1415  1   
1133 1416 1417  1   
1134 1417 1418  1   
1135 1417 1419  1   
1136 1417 1420  1   
1137 1421 1422  1   
1138 1422 1423  1   
1139 1422 1424  1   
1140 1422 1425  1   
1141 1426 1427  1   
1142 1427 1428  1   
1143 1427 1429  1   
1144 1427 1430  1   
1145 1431 1432  1   
1146 1432 1433  1   
1147 1432 1434  1   
1148 1432 1435  1   
1149 1436 1437  1   
1150 1437 1438  1   
1151 1437 1439  1   
1152 1437 1440  1   
1153 1441 1442  1   
1154 1442 1443  1   
1155 1442 1444  1   
1156 1442 1445  1   
1157 1446 1447  1   
1158 1447 1448  1   
1159 1447 1449  1   
1160 1447 1450  1   
1161 1451 1452  1   
1162 1452 1453  1   
1163 1452 1454  1   
1164 1452 1455  1   
1165 1456 1457  1   
1166 1457 1458  1   
1167 1457 1459  1   
1168 1457 1460  1   
1169 1461 1462  1   
1170 1462 1463  1   
1171 1462 1464  1   
1172 1462 1465  1   
1173 1466 1467  1   
1174 1467 1468  1   
1175 1467 1469  1   
1176 1467 1470  1   
1177 1471 1472  1   
1178 1472 1473  1   
1179 1472 1474  1   
1180 1472 1475  1   
1181 1476 1477  1   
1182 1477 1478  1   
1183 1477 1479  1   
1184 1477 1480  1   
1185 1481 1482  1   
1186 1482 1483  1   
1187 1482 1484  1   
1188 1482 1485  1   
1189 1486 1487  1   
1190 1487 1488  1   
1191 1487 1489  1   
1192 1487 1490  1   
1193 1491 1492  1   
1194 1492 1493  1   
1195 1492 1494  1   
1196 1492 1495  1   
1197 1496 1497  1   
1198 1497 1498  1   
1199 1497 1499  1   
1200 1497 1500  1   
1201 1501 1502  1   
1202 1502 1503  1   
1203 1502 1504  1   
1204 1502 1505  1   
1205 1506 1507  1   
1206 1507 1508  1   
1207 1507 1509  1   
1208 1507 1510  1   
1209 1511 1512  1   
1210 1512 1513  1   
1211 1512 1514  1   
1212 1512 1515  1   
1213 1516 1517  1   
1214 1517 1518  1   
1215 1517 1519  1   
1216 1517 1520  1   
1217 1521 1522  1   
1218 1522 1523  1   
1219 1522 1524  1   
1220 1522 1525  1   
1221 1526 1527  1   
1222 1527 1528  1   
1223 1527 1529  1   
1224 1527 1530  1   
1225 1531 1532  1   
1226 1532 1533  1   
1227 1532 1534  1   
1228 1532 1535  1   
1229 1536 1537  1   
1230 1537 1538  1   
1231 1537 1539  1   
1232 1537 1540  1   
1233 1541 1542  1   
1234 1542 1543  1   
1235 1542 1544  1   
1236 1542 1545  1   
1237 1546 1547  1   
1238 1547 1548  1   
1239 1547 1549  1   
1240 1547 1550  1   
1241 1551 1552  1   
1242 1552 1553  1   
1243 1552 1554  1   
1244 1552 1555  1   
1245 1556 1557  1   
1246 1557 1558  1   
1247 1557 1559  1   
1248 1557 1560  1   
1249 1561 1562  1   
1250 1562 1563  1   
1251 1562 1564  1   
1252 1562 1565  1   
1253 1566 1567  1   
1254 1567 1568  1   
1255 1567 1569  1   
1256 1567 1570  1   
1257 1571 1572  1   
1258 1572 1573  1   
1259 1572 1574  1   
1260 1572 1575  1   
1261 1576 1577  1   
1262 1577 1578  1   
1263 1577 1579  1   
1264 1577 1580  1   
1265 1581 1582  1   
1266 1582 1583  1   
1267 1582 1584  1   
1268 1582 1585  1   
1269 1586 1587  1   
1270 1587 1588  1   
1271 1587 1589  1   
1272 1587 1590  1   
1273 1591 1592  1   
1274 1592 1593  1   
1275 1592 1594  1   
1276 1592 1595  1   
1277 1596 1597  1   
1278 1597 1598  1   
1279 1597 1599  1   
1280 1597 1600  1   
1281 1601 1602  1   
1282 1602 1603  1   
1283 1602 1604  1   
1284 1602 1605  1   
1285 1606 1607  1   
1286 1607 1608  1   
1287 1607 1609  1   
1288 1607 1610  1   
1289 1611 1612  1   
1290 1612 1613  1   
1291 1612 1614  1   
1292 1612 1615  1   
1293 1616 1617  1   
1294 1617 1618  1   
1295 1617 1619  1   
1296 1617 1620  1   
1297 1621 1622  1   
1298 1622 1623  1   
1299 1622 1624  1   
1300 1622 1625  1   
1301 1626 1627  1   
1302 1627 1628  1   
1303 1627 1629  1   
1304 1627 1630  1   
1305 1631 1632  1   
1306 1632 1633  1   
1307 1632 1634  1   
1308 1632 1635  1   
1309 1636 1637  1   
1310 1637 1638  1   
1311 1637 1639  1   
1312 1637 1640  1   
1313 1641 1642  1   
1314 1642 1643  1   
1315 1642 1644  1   
1316 1642 1645  1   
1317 1646 1647  1   
1318 1647 1648  1   
1319 1647 1649  1   
1320 1647 1650  1   
1321 1651 1652  1   
1322 1652 1653  1   
1323 1652 1654  1   
1324 1652 1655  1   
1325 1656 1657  1   
1326 1657 1658  1   
1327 1657 1659  1   
1328 1657 1660  1   
1329 1661 1662  1   
1330 1662 1663  1   
1331 1662 1664  1   
1332 1662 1665  1   
1333 1666 1667  1   
1334 1667 1668  1   
1335 1667 1669  1   
1336 1667 1670  1   
1337 1671 1672  1   
1338 1672 1673  1   
1339 1672 1674  1   
1340 1672 1675  1   
1341 1676 1677  1   
1342 1677 1678  1   
1343 1677 1679  1   
1344 1677 1680  1   
1345 1681 1682  1   
1346 1682 1683  1   
1347 1682 1684  1   
1348 1682 1685  1   
1349 1686 1687  1   
1350 1687 1688  1   
1351 1687 1689  1   
1352 1687 1690  1   
1353 1691 1692  1   
1354 1692 1693  1   
1355 1692 1694  1   
1356 1692 1695  1   
1357 1696 1697  1   
1358 1697 1698  1   
1359 1697 1699  1   
1360 1697 1700  1   
1361 1701 1702  1   
1362 1702 1703  1   
1363 1702 1704  1   
1364 1702 1705  1   
1365 1706 1707  1   
1366 1707 1708  1   
1367 1707 1709  1   
1368 1707 1710  1   
1369 1711 1712  1   
1370 1712 1713  1   
1371 1712 1714  1   
1372 1712 1715  1   
1373 1716 1717  1   
1374 1717 1718  1   
1375 1717 1719  1   
1376 1717 1720  1   
1377 1721 1722  1   
1378 1722 1723  1   
1379 1722 1724  1   
1380 1722 1725  1   
1381 1726 1727  1   
1382 1727 1728  1   
1383 1727 1729  1   
1384 1727 1730  1   
1385 1731 1732  1   
1386 1732 1733  1   
1387 1732 1734  1   
1388 1732 1735  1   
1389 1736 1737  1   
1390 1737 1738  1   
1391 1737 1739  1   
1392 1737 1740  1   
1393 1741 1742  1   
1394 1742 1743  1   
1395 1742 1744  1   
1396 1742 1745  1   
1397 1746 1747  1   
1398 1747 1748  1   
1399 1747 1749  1   
1400 1747 1750  1   
1401 1751 1752  1   
1402 1752 1753  1   
1403 1752 1754  1   
1404 1752 1755  1   
1405 1756 1757  1   
1406 1757 1758  1   
1407 1757 1759  1   
1408 1757 1760  1   
1409 1761 1762  1   
1410 1762 1763  1   
1411 1762 1764  1   
1412 1762 1765  1   
1413 1766 1767  1   
1414 1767 1768  1   
1415 1767 1769  1   
1416 1767 1770  1   
1417 1771 1772  1   
1418 1772 1773  1   
1419 1772 1774  1   
1420 1772 1775  1   
1421 1776 1777  1   
1422 1777 1778  1   
1423 1777 1779  1   
1424 1777 1780  1   
1425 1781 1782  1   
1426 1782 1783  1   
1427 1782 1784  1   
1428 1782 1785  1   
1429 1786 1787  1   
1430 1787 1788  1   
1431 1787 1789  1   
1432 1787 1790  1   
1433 1791 1792  1   
1434 1792 1793  1   
1435 1792 1794  1   
1436 1792 1795  1   
1437 1796 1797  1   
1438 1797 1798  1   
1439 1797 1799  1   
1440 1797 1800  1   
1441 1801 1802  1   
1442 1802 1803  1   
1443 1802 1804  1   
1444 1802 1805  1   
1445 1806 1807  1   
1446 1807 1808  1   
1447 1807 1809  1   
1448 1807 1810  1   
1449 1811 1812  1   
1450 1812 1813  1   
1451 1812 1814  1   
1452 1812 1815  1   
1453 1816 1817  1   
1454 1817 1818  1   
1455 1817 1819  1   
1456 1817 1820  1   
1457 1821 1822  1   
1458 1822 1823  1   
1459 1822 1824  1   
1460 1822 1825  1   
1461 1826 1827  1   
1462 1827 1828  1   
1463 1827 1829  1   
1464 1827 1830  1   
1465 1831 1832  1   
1466 1832 1833  1   
1467 1832 1834  1   
1468 1832 1835  1   
1469 1836 1837  1   
1470 1837 1838  1   
1471 1837 1839  1   
1472 1837 1840  1   
1473 1841 1842  1   
1474 1842 1843  1   
1475 1842 1844  1   
1476 1842 1845  1   
1477 1846 1847  1   
1478 1847 1848  1   
1479 1847 1849  1   
1480 1847 1850  1   
1481 1851 1852  1   
1482 1852 1853  1   
1483 1852 1854  1   
1484 1852 1855  1   
1485 1856 1857  1   
1486 1857 1858  1   
1487 1857 1859  1   
1488 1857 1860  1   
1489 1861 1862  1   
1490 1862 1863  1   
1491 1862 1864  1   
1492 1862 1865  1   
1493 1866 1867  1   
1494 1867 1868  1   
1495 1867 1869  1   
1496 1867 1870  1   
1497 1871 1872  1   
1498 1872 1873  1   
1499 1872 1874  1   
1500 1872 1875  1   
1501 1876 1877  1   
1502 1877 1878  1   
1503 1877 1879  1   
1504 1877 1880  1   
1505 1881 1882  1   
1506 1882 1883  1   
1507 1882 1884  1   
1508 1882 1885  1   
1509 1886 1887  1   
1510 1887 1888  1   
1511 1887 1889  1   
1512 1887 1890  1   
1513 1891 1892  1   
1514 1892 1893  1   
1515 1892 1894  1   
1516 1892 1895  1   
1517 1896 1897  1   
1518 1897 1898  1   
1519 1897 1899  1   
1520 1897 1900  1   
1521 1901 1902  1   
1522 1902 1903  1   
1523 1902 1904  1   
1524 1902 1905  1   
1525 1906 1907  1   
1526 1907 1908  1   
1527 1907 1909  1   
1528 1907 1910  1   
1529 1911 1912  1   
1530 1912 1913  1   
1531 1912 1914  1   
1532 1912 1915  1   
1533 1916 1917  1   
1534 1917 1918  1   
1535 1917 1919  1   
1536 1917 1920  1   
1537 1921 1922  1   
1538 1922 1923  1   
1539 1922 1924  1   
1540 1922 1925  1   
1541 1926 1927  1   
1542 1927 1928  1   
1543 1927 1929  1   
1544 1927 1930  1   
1545 1931 1932  1   
1546 1932 1933  1   
1547 1932 1934  1   
1548 1932 1935  1   
1549 1936 1937  1   
1550 1937 1938  1   
1551 1937 1939  1   
1552 1937 1940  1   
1553 1941 1942  1   
1554 1942 1943  1   
1555 1942 1944  1   
1556 1942 1945  1   
1557 1946 1947  1   
1558 1947 1948  1   
1559 1947 1949  1   
1560 1947 1950  1   
1561 1951 1952  1   
1562 1952 1953  1   
1563 1952 1954  1   
1564 1952 1955  1   
1565 1956 1957  1   
1566 1957 1958  1   
1567 1957 1959  1   
1568 1957 1960  1   
1569 1961 1962  1   
1570 1962 1963  1   
1571 1962 1964  1   
1572 1962 1965  1   
1573 1966 1967  1   
1574 1967 1968  1   
1575 1967 1969  1   
1576 1967 1970  1   
1577 1971 1972  1   
1578 1972 1973  1   
1579 1972 1974  1   
1580 1972 1975  1   
1581 1976 1977  1   
1582 1977 1978  1   
1583 1977 1979  1   
1584 1977 1980  1   
1585 1981 1982  1   
1586 1982 1983  1   
1587 1982 1984  1   
1588 1982 1985  1   
1589 1986 1987  1   
1590 1987 1988  1   
1591 1987 1989  1   
1592 1987 1990  1   
1593 1991 1992  1   
1594 1992 1993  1   
1595 1992 1994  1   
1596 1992 1995  1   
1597 1996 1997  1   
1598 1997 1998  1   
1599 1997 1999  1   
1600 1997 2000  1   
1601 2001 2002  1   
1602 2002 2003  1   
1603 2002 2004  1   
1604 2002 2005  1   
1605 2006 2007  1   
1606 2007 2008  1   
1607 2007 2009  1   
1608 2007 2010  1   
1609 2011 2012  1   
1610 2012 2013  1   
1611 2012 2014  1   
1612 2012 2015  1   
1613 2016 2017  1   
1614 2017 2018  1   
1615 2017 2019  1   
1616 2017 2020  1   
1617 2021 2022  1   
1618 2022 2023  1   
1619 2022 2024  1   
1620 2022 2025  1   
1621 2026 2027  1   
1622 2027 2028  1   
1623 2027 2029  1   
1624 2027 2030  1   
1625 2031 2032  1   
1626 2032 2033  1   
1627 2032 2034  1   
1628 2032 2035  1   
1629 2036 2037  1   
1630 2037 2038  1   
1631 2037 2039  1   
1632 2037 2040  1   
1633 2041 2042  1   
1634 2042 2043  1   
1635 2042 2044  1   
1636 2042 2045  1   
1637 2046 2047  1   
1638 2047 2048  1   
1639 2047 2049  1   
1640 2047 2050  1   
1641 2051 2052  1   
1642 2052 2053  1   
1643 2052 2054  1   
1644 2052 2055  1   
1645 2056 2057  1   
1646 2057 2058  1   
1647 2057 2059  1   
1648 2057 2060  1   
1649 2061 2062  1   
1650 2062 2063  1   
1651 2062 2064  1   
1652 2062 2065  1   
1653 2066 2067  1   
1654 2067 2068  1   
1655 2067 2069  1   
1656 2067 2070  1   
1657 2071 2072  1   
1658 2072 2073  1   
1659 2072 2074  1   
1660 2072 2075  1   
1661 2076 2077  1   
1662 2077 2078  1   
1663 2077 2079  1   
1664 2077 2080  1   
1665 2081 2082  1   
1666 2082 2083  1   
1667 2082 2084  1   
1668 2082 2085  1   
1669 2086 2087  1   
1670 2087 2088  1   
1671 2087 2089  1   
1672 2087 2090  1   
1673 2091 2092  1   
1674 2092 2093  1   
1675 2092 2094  1   
1676 2092 2095  1   
1677 2096 2097  1   
1678 2097 2098  1   
1679 2097 2099  1   
1680 2097 2100  1   
1681 2101 2102  1   
1682 2102 2103  1   
1683 2102 2104  1   
1684 2102 2105  1   
1685 2106 2107  1   
1686 2107 2108  1   
1687 2107 2109  1   
1688 2107 2110  1   
1689 2111 2112  1   
1690 2112 2113  1   
1691 2112 2114  1   
1692 2112 2115  1   
1693 2116 2117  1   
1694 2117 2118  1   
1695 2117 2119  1   
1696 2117 2120  1   
1697 2121 2122  1   
1698 2122 2123  1   
1699 2122 2124  1   
1700 2122 2125  1   
1701 2126 2127  1   
1702 2127 2128  1   
1703 2127 2129  1   
1704 2127 2130  1   
1705 2131 2132  1   
1706 2132 2133  1   
1707 2132 2134  1   
1708 2132 2135  1   
1709 2136 2137  1   
1710 2137 2138  1   
1711 2137 2139  1   
1712 2137 2140  1   
1713 2141 2142  1   
1714 2142 2143  1   
1715 2142 2144  1   
1716 2142 2145  1   
1717 2146 2147  1   
1718 2147 2148  1   
1719 2147 2149  1   
1720 2147 2150  1   
1721 2151 2152  1   
1722 2152 2153  1   
1723 2152 2154  1   
1724 2152 2155  1   
1725 2156 2157  1   
1726 2157 2158  1   
1727 2157 2159  1   
1728 2157 2160  1   
1729 2161 2162  1   
1730 2162 2163  1   
1731 2162 2164  1   
1732 2162 2165  1   
1733 2166 2167  1   
1734 2167 2168  1   
1735 2167 2169  1   
1736 2167 2170  1   
1737 2171 2172  1   
1738 2172 2173  1   
1739 2172 2174  1   
1740 2172 2175  1   
1741 2176 2177  1   
1742 2177 2178  1   
1743 2177 2179  1   
1744 2177 2180  1   
1745 2181 2182  1   
1746 2182 2183  1   
1747 2182 2184  1   
1748 2182 2185  1   
1749 2186 2187  1   
1750 2187 2188  1   
1751 2187 2189  1   
1752 2187 2190  1   
1753 2191 2192  1   
1754 2192 2193  1   
1755 2192 2194  1   
1756 2192 2195  1   
1757 2196 2197  1   
1758 2197 2198  1   
1759 2197 2199  1   
1760 2197 2200  1   
1761 2201 2202  1   
1762 2202 2203  1   
1763 2202 2204  1   
1764 2202 2205  1   
1765 2206 2207  1   
1766 2207 2208  1   
1767 2207 2209  1   
1768 2207 2210  1   
1769 2211 2212  1   
1770 2212 2213  1   
1771 2212 2214  1   
1772 2212 2215  1   
1773 2216 2217  1   
1774 2217 2218  1   
1775 2217 2219  1   
1776 2217 2220  1   
1777 2221 2222  1   
1778 2222 2223  1   
1779 2222 2224  1   
1780 2222 2225  1   
1781 2226 2227  1   
1782 2227 2228  1   
1783 2227 2229  1   
1784 2227 2230  1   
1785 2231 2232  1   
1786 2232 2233  1   
1787 2232 2234  1   
1788 2232 2235  1   
1789 2236 2237  1   
1790 2237 2238  1   
1791 2237 2239  1   
1792 2237 2240  1   
1793 2241 2242  1   
1794 2242 2243  1   
1795 2242 2244  1   
1796 2242 2245  1   
1797 2246 2247  1   
1798 2247 2248  1   
1799 2247 2249  1   
1800 2247 2250  1   
1801 2251 2252  1   
1802 2252 2253  1   
1803 2252 2254  1   
1804 2252 2255  1   
1805 2256 2257  1   
1806 2257 2258  1   
1807 2257 2259  1   
1808 2257 2260  1   
1809 2261 2262  1   
1810 2262 2263  1   
1811 2262 2264  1   
1812 2262 2265  1   
1813 2266 2267  1   
1814 2267 2268  1   
1815 2267 2269  1   
1816 2267 2270  1   
1817 2271 2272  1   
1818 2272 2273  1   
1819 2272 2274  1   
1820 2272 2275  1   
1821 2276 2277  1   
1822 2277 2278  1   
1823 2277 2279  1   
1824 2277 2280  1   
1825 2281 2282  1   
1826 2282 2283  1   
1827 2282 2284  1   
1828 2282 2285  1   
1829 2286 2287  1   
1830 2287 2288  1   
1831 2287 2289  1   
1832 2287 2290  1   
1833 2291 2292  1   
1834 2292 2293  1   
1835 2292 2294  1   
1836 2292 2295  1   
1837 2296 2297  1   
1838 2297 2298  1   
1839 2297 2299  1   
1840 2297 2300  1   
1841 2301 2302  1   
1842 2302 2303  1   
1843 2302 2304  1   
1844 2302 2305  1   
1845 2306 2307  1   
1846 2307 2308  1   
1847 2307 2309  1   
1848 2307 2310  1   
1849 2311 2312  1   
1850 2312 2313  1   
1851 2312 2314  1   
1852 2312 2315  1   
1853 2316 2317  1   
1854 2317 2318  1   
1855 2317 2319  1   
1856 2317 2320  1   
1857 2321 2322  1   
1858 2322 2323  1   
1859 2322 2324  1   
1860 2322 2325  1   
1861 2326 2327  1   
1862 2327 2328  1   
1863 2327 2329  1   
1864 2327 2330  1   
1865 2331 2332  1   
1866 2332 2333  1   
1867 2332 2334  1   
1868 2332 2335  1   
1869 2336 2337  1   
1870 2337 2338  1   
1871 2337 2339  1   
1872 2337 2340  1   
1873 2341 2342  1   
1874 2342 2343  1   
1875 2342 2344  1   
1876 2342 2345  1   
1877 2346 2347  1   
1878 2347 2348  1   
1879 2347 2349  1   
1880 2347 2350  1   
1881 2351 2352  1   
1882 2352 2353  1   
1883 2352 2354  1   
1884 2352 2355  1   
1885 2356 2357  1   
1886 2357 2358  1   
1887 2357 2359  1   
1888 2357 2360  1   
1889 2361 2362  1   
1890 2362 2363  1   
1891 2362 2364  1   
1892 2362 2365  1   
1893 2366 2367  1   
1894 2367 2368  1   
1895 2367 2369  1   
1896 2367 2370  1   
1897 2371 2372  1   
1898 2372 2373  1   
1899 2372 2374  1   
1900 2372 2375  1   
1901 2376 2377  1   
1902 2377 2378  1   
1903 2377 2379  1   
1904 2377 2380  1   
1905 2381 2382  1   
1906 2382 2383  1   
1907 2382 2384  1   
1908 2382 2385  1   
1909 2386 2387  1   
1910 2387 2388  1   
1911 2387 2389  1   
1912 2387 2390  1   
1913 2391 2392  1   
1914 2392 2393  1   
1915 2392 2394  1   
1916 2392 2395  1   
1917 2396 2397  1   
1918 2397 2398  1   
1919 2397 2399  1   
1920 2397 2400  1   
1921 2401 2402  1   
1922 2402 2403  1   
1923 2402 2404  1   
1924 2402 2405  1   
1925 2406 2407  1   
1926 2407 2408  1   
1927 2407 2409  1   
1928 2407 2410  1   
1929 2411 2412  1   
1930 2412 2413  1   
1931 2412 2414  1   
1932 2412 2415  1   
1933 2416 2417  1   
1934 2417 2418  1   
1935 2417 2419  1   
1936 2417 2420  1   
1937 2421 2422  1   
1938 2422 2423  1   
1939 2422 2424  1   
1940 2422 2425  1   
1941 2426 2427  1   
1942 2427 2428  1   
1943 2427 2429  1   
1944 2427 2430  1   
1945 2431 2432  1   
1946 2432 2433  1   
1947 2432 2434  1   
1948 2432 2435  1   
1949 2436 2437  1   
1950 2437 2438  1   
1951 2437 2439  1   
1952 2437 2440  1   
1953 2441 2442  1   
1954 2442 2443  1   
1955 2442 2444  1   
1956 2442 2445  1   
1957 2446 2447  1   
1958 2447 2448  1   
1959 2447 2449  1   
1960 2447 2450  1   
1961 2451 2452  1   
1962 2452 2453  1   
1963 2452 2454  1   
1964 2452 2455  1   
1965 2456 2457  1   
1966 2457 2458  1   
1967 2457 2459  1   
1968 2457 2460  1   
1969 2461 2462  1   
1970 2462 2463  1   
1971 2462 2464  1   
1972 2462 2465  1   
1973 2466 2467  1   
1974 2467 2468  1   
1975 2467 2469  1   
1976 2467 2470  1   
@<TRIPOS>SUBSTRUCTURE
  1 CCL4    2 GROUP 4 **** **** 0
  2 CCL4    7 GROUP 4 **** **** 0
  3 CCL4   12 GROUP 4 **** **** 0
  4 CCL4   17 GROUP 4 **** **** 0
  5 CCL4   22 GROUP 4 **** **** 0
  6 CCL4   27 GROUP 4 **** **** 0
  7 CCL4   32 GROUP 4 **** **** 0
  8 CCL4   37 GROUP 4 **** **** 0
  9 CCL4   42 GROUP 4 **** **** 0
 10 CCL4   47 GROUP 4 **** **** 0
 11 CCL4   52 GROUP 4 **** **** 0
 12 CCL4   57 GROUP 4 **** **** 0
 13 CCL4   62 GROUP 4 **** **** 0
 14 CCL4   67 GROUP 4 **** **** 0
 15 CCL4   72 GROUP 4 **** **** 0
 16 CCL4   77 GROUP 4 **** **** 0
 17 CCL4   82 GROUP 4 **** **** 0
 18 CCL4   87 GROUP 4 **** **** 0
 19 CCL4   92 GROUP 4 **** **** 0
 20 CCL4   97 GROUP 4 **** **** 0
 21 CCL4  102 GROUP 4 **** **** 0
 22 CCL4  107 GROUP 4 **** **** 0
 23 CCL4  112 GROUP 4 **** **** 0
 24 CCL4  117 GROUP 4 **** **** 0
 25 CCL4  122 GROUP 4 **** **** 0
 26 CCL4  127 GROUP 4 **** **** 0
 27 CCL4  132 GROUP 4 **** **** 0
 28 CCL4  137 GROUP 4 **** **** 0
 29 CCL4  142 GROUP 4 **** **** 0
 30 CCL4  147 GROUP 4 **** **** 0
 31 CCL4  152 GROUP 4 **** **** 0
 32 CCL4  157 GROUP 4 **** **** 0
 33 CCL4  162 GROUP 4 **** **** 0
 34 CCL4  167 GROUP 4 **** **** 0
 35 CCL4  172 GROUP 4 **** **** 0
 36 CCL4  177 GROUP 4 **** **** 0
 37 CCL4  182 GROUP 4 **** **** 0
 38 CCL4  187 GROUP 4 **** **** 0
 39 CCL4  192 GROUP 4 **** **** 0
 40 CCL4  197 GROUP 4 **** **** 0
 41 CCL4  202 GROUP 4 **** **** 0
 42 CCL4  207 GROUP 4 **** **** 0
 43 CCL4  212 GROUP 4 **** **** 0
 44 CCL4  217 GROUP 4 **** **** 0
 45 CCL4  222 GROUP 4 **** **** 0
 46 CCL4  227 GROUP 4 **** **** 0
 47 CCL4  232 GROUP 4 **** **** 0
 48 CCL4  237 GROUP 4 **** **** 0
 49 CCL4  242 GROUP 4 **** **** 0
 50 CCL4  247 GROUP 4 **** **** 0
 51 CCL4  252 GROUP 4 **** **** 0
 52 CCL4  257 GROUP 4 **** **** 0
 53 CCL4  262 GROUP 4 **** **** 0
 54 CCL4  267 GROUP 4 **** **** 0
 55 CCL4  272 GROUP 4 **** **** 0
 56 CCL4  277 GROUP 4 **** **** 0
 57 CCL4  282 GROUP 4 **** **** 0
 58 CCL4  287 GROUP 4 **** **** 0
 59 CCL4  292 GROUP 4 **** **** 0
 60 CCL4  297 GROUP 4 **** **** 0
 61 CCL4  302 GROUP 4 **** **** 0
 62 CCL4  307 GROUP 4 **** **** 0
 63 CCL4  312 GROUP 4 **** **** 0
 64 CCL4  317 GROUP 4 **** **** 0
 65 CCL4  322 GROUP 4 **** **** 0
 66 CCL4  327 GROUP 4 **** **** 0
 67 CCL4  332 GROUP 4 **** **** 0
 68 CCL4  337 GROUP 4 **** **** 0
 69 CCL4  342 GROUP 4 **** **** 0
 70 CCL4  347 GROUP 4 **** **** 0
 71 CCL4  352 GROUP 4 **** **** 0
 72 CCL4  357 GROUP 4 **** **** 0
 73 CCL4  362 GROUP 4 **** **** 0
 74 CCL4  367 GROUP 4 **** **** 0
 75 CCL4  372 GROUP 4 **** **** 0
 76 CCL4  377 GROUP 4 **** **** 0
 77 CCL4  382 GROUP 4 **** **** 0
 78 CCL4  387 GROUP 4 **** **** 0
 79 CCL4  392 GROUP 4 **** **** 0
 80 CCL4  397 GROUP 4 **** **** 0
 81 CCL4  402 GROUP 4 **** **** 0
 82 CCL4  407 GROUP 4 **** **** 0
 83 CCL4  412 GROUP 4 **** **** 0
 84 CCL4  417 GROUP 4 **** **** 0
 85 CCL4  422 GROUP 4 **** **** 0
 86 CCL4  427 GROUP 4 **** **** 0
 87 CCL4  432 GROUP 4 **** **** 0
 88 CCL4  437 GROUP 4 **** **** 0
 89 CCL4  442 GROUP 4 **** **** 0
 90 CCL4  447 GROUP 4 **** **** 0
 91 CCL4  452 GROUP 4 **** **** 0
 92 CCL4  457 GROUP 4 **** **** 0
 93 CCL4  462 GROUP 4 **** **** 0
 94 CCL4  467 GROUP 4 **** **** 0
 95 CCL4  472 GROUP 4 **** **** 0
 96 CCL4  477 GROUP 4 **** **** 0
 97 CCL4  482 GROUP 4 **** **** 0
 98 CCL4  487 GROUP 4 **** **** 0
 99 CCL4  492 GROUP 4 **** **** 0
100 CCL4  497 GROUP 4 **** **** 0
101 CCL4  502 GROUP 4 **** **** 0
102 CCL4  507 GROUP 4 **** **** 0
103 CCL4  512 GROUP 4 **** **** 0
104 CCL4  517 GROUP 4 **** **** 0
105 CCL4  522 GROUP 4 **** **** 0
106 CCL4  527 GROUP 4 **** **** 0
107 CCL4  532 GROUP 4 **** **** 0
108 CCL4  537 GROUP 4 **** **** 0
109 CCL4  542 GROUP 4 **** **** 0
110 CCL4  547 GROUP 4 **** **** 0
111 CCL4  552 GROUP 4 **** **** 0
112 CCL4  557 GROUP 4 **** **** 0
113 CCL4  562 GROUP 4 **** **** 0
114 CCL4  567 GROUP 4 **** **** 0
115 CCL4  572 GROUP 4 **** **** 0
116 CCL4  577 GROUP 4 **** **** 0
117 CCL4  582 GROUP 4 **** **** 0
118 CCL4  587 GROUP 4 **** **** 0
119 CCL4  592 GROUP 4 **** **** 0
120 CCL4  597 GROUP 4 **** **** 0
121 CCL4  602 GROUP 4 **** **** 0
122 CCL4  607 GROUP 4 **** **** 0
123 CCL4  612 GROUP 4 **** **** 0
124 CCL4  617 GROUP 4 **** **** 0
125 CCL4  622 GROUP 4 **** **** 0
126 CCL4  627 GROUP 4 **** **** 0
127 CCL4  632 GROUP 4 **** **** 0
128 CCL4  637 GROUP 4 **** **** 0
129 CCL4  642 GROUP 4 **** **** 0
130 CCL4  647 GROUP 4 **** **** 0
131 CCL4  652 GROUP 4 **** **** 0
132 CCL4  657 GROUP 4 **** **** 0
133 CCL4  662 GROUP 4 **** **** 0
134 CCL4  667 GROUP 4 **** **** 0
135 CCL4  672 GROUP 4 **** **** 0
136 CCL4  677 GROUP 4 **** **** 0
137 CCL4  682 GROUP 4 **** **** 0
138 CCL4  687 GROUP 4 **** **** 0
139 CCL4  692 GROUP 4 **** **** 0
140 CCL4  697 GROUP 4 **** **** 0
141 CCL4  702 GROUP 4 **** **** 0
142 CCL4  707 GROUP 4 **** **** 0
143 CCL4  712 GROUP 4 **** **** 0
144 CCL4  717 GROUP 4 **** **** 0
145 CCL4  722 GROUP 4 **** **** 0
146 CCL4  727 GROUP 4 **** **** 0
147 CCL4  732 GROUP 4 **** **** 0
148 CCL4  737 GROUP 4 **** **** 0
149 CCL4  742 GROUP 4 **** **** 0
150 CCL4  747 GROUP 4 **** **** 0
151 CCL4  752 GROUP 4 **** **** 0
152 CCL4  757 GROUP 4 **** **** 0
153 CCL4  762 GROUP 4 **** **** 0
154 CCL4  767 GROUP 4 **** **** 0
155 CCL4  772 GROUP 4 **** **** 0
156 CCL4  777 GROUP 4 **** **** 0
157 CCL4  782 GROUP 4 **** **** 0
158 CCL4  787 GROUP 4 **** **** 0
159 CCL4  792 GROUP 4 **** **** 0
160 CCL4  797 GROUP 4 **** **** 0
161 CCL4  802 GROUP 4 **** **** 0
162 CCL4  807 GROUP 4 **** **** 0
163 CCL4  812 GROUP 4 **** **** 0
164 CCL4  817 GROUP 4 **** **** 0
165 CCL4  822 GROUP 4 **** **** 0
166 CCL4  827 GROUP 4 **** **** 0
167 CCL4  832 GROUP 4 **** **** 0
168 CCL4  837 GROUP 4 **** **** 0
169 CCL4  842 GROUP 4 **** **** 0
170 CCL4  847 GROUP 4 **** **** 0
171 CCL4  852 GROUP 4 **** **** 0
172 CCL4  857 GROUP 4 **** **** 0
173 CCL4  862 GROUP 4 **** **** 0
174 CCL4  867 GROUP 4 **** **** 0
175 CCL4  872 GROUP 4 **** **** 0
176 CCL4  877 GROUP 4 **** **** 0
177 CCL4  882 GROUP 4 **** **** 0
178 CCL4  887 GROUP 4 **** **** 0
179 CCL4  892 GROUP 4 **** **** 0
180 CCL4  897 GROUP 4 **** **** 0
181 CCL4  902 GROUP 4 **** **** 0
182 CCL4  907 GROUP 4 **** **** 0
183 CCL4  912 GROUP 4 **** **** 0
184 CCL4  917 GROUP 4 **** **** 0
185 CCL4  922 GROUP 4 **** **** 0
186 CCL4  927 GROUP 4 **** **** 0
187 CCL4  932 GROUP 4 **** **** 0
188 CCL4  937 GROUP 4 **** **** 0
189 CCL4  942 GROUP 4 **** **** 0
190 CCL4  947 GROUP 4 **** **** 0
191 CCL4  952 GROUP 4 **** **** 0
192 CCL4  957 GROUP 4 **** **** 0
193 CCL4  962 GROUP 4 **** **** 0
194 CCL4  967 GROUP 4 **** **** 0
195 CCL4  972 GROUP 4 **** **** 0
196 CCL4  977 GROUP 4 **** **** 0
197 CCL4  982 GROUP 4 **** **** 0
198 CCL4  987 GROUP 4 **** **** 0
199 CCL4  992 GROUP 4 **** **** 0
200 CCL4  997 GROUP 4 **** **** 0
201 CCL4 1002 GROUP 4 **** **** 0
202 CCL4 1007 GROUP 4 **** **** 0
203 CCL4 1012 GROUP 4 **** **** 0
204 CCL4 1017 GROUP 4 **** **** 0
205 CCL4 1022 GROUP 4 **** **** 0
206 CCL4 1027 GROUP 4 **** **** 0
207 CCL4 1032 GROUP 4 **** **** 0
208 CCL4 1037 GROUP 4 **** **** 0
209 CCL4 1042 GROUP 4 **** **** 0
210 CCL4 1047 GROUP 4 **** **** 0
211 CCL4 1052 GROUP 4 **** **** 0
212 CCL4 1057 GROUP 4 **** **** 0
213 CCL4 1062 GROUP 4 **** **** 0
214 CCL4 1067 GROUP 4 **** **** 0
215 CCL4 1072 GROUP 4 **** **** 0
216 CCL4 1077 GROUP 4 **** **** 0
217 CCL4 1082 GROUP 4 **** **** 0
218 CCL4 1087 GROUP 4 **** **** 0
219 CCL4 1092 GROUP 4 **** **** 0
220 CCL4 1097 GROUP 4 **** **** 0
221 CCL4 1102 GROUP 4 **** **** 0
222 CCL4 1107 GROUP 4 **** **** 0
223 CCL4 1112 GROUP 4 **** **** 0
224 CCL4 1117 GROUP 4 **** **** 0
225 CCL4 1122 GROUP 4 **** **** 0
226 CCL4 1127 GROUP 4 **** **** 0
227 CCL4 1132 GROUP 4 **** **** 0
228 CCL4 1137 GROUP 4 **** **** 0
229 CCL4 1142 GROUP 4 **** **** 0
230 CCL4 1147 GROUP 4 **** **** 0
231 CCL4 1152 GROUP 4 **** **** 0
232 CCL4 1157 GROUP 4 **** **** 0
233 CCL4 1162 GROUP 4 **** **** 0
234 CCL4 1167 GROUP 4 **** **** 0
235 CCL4 1172 GROUP 4 **** **** 0
236 CCL4 1177 GROUP 4 **** **** 0
237 CCL4 1182 GROUP 4 **** **** 0
238 CCL4 1187 GROUP 4 **** **** 0
239 CCL4 1192 GROUP 4 **** **** 0
240 CCL4 1197 GROUP 4 **** **** 0
241 CCL4 1202 GROUP 4 **** **** 0
242 CCL4 1207 GROUP 4 **** **** 0
243 CCL4 1212 GROUP 4 **** **** 0
244 CCL4 1217 GROUP 4 **** **** 0
245 CCL4 1222 GROUP 4 **** **** 0
246 CCL4 1227 GROUP 4 **** **** 0
247 CCL4 1232 GROUP 4 **** **** 0
248 CCL4 1237 GROUP 4 **** **** 0
249 CCL4 1242 GROUP 4 **** **** 0
250 CCL4 1247 GROUP 4 **** **** 0
251 CCL4 1252 GROUP 4 **** **** 0
252 CCL4 1257 GROUP 4 **** **** 0
253 CCL4 1262 GROUP 4 **** **** 0
254 CCL4 1267 GROUP 4 **** **** 0
255 CCL4 1272 GROUP 4 **** **** 0
256 CCL4 1277 GROUP 4 **** **** 0
257 CCL4 1282 GROUP 4 **** **** 0
258 CCL4 1287 GROUP 4 **** **** 0
259 CCL4 1292 GROUP 4 **** **** 0
260 CCL4 1297 GROUP 4 **** **** 0
261 CCL4 1302 GROUP 4 **** **** 0
262 CCL4 1307 GROUP 4 **** **** 0
263 CCL4 1312 GROUP 4 **** **** 0
264 CCL4 1317 GROUP 4 **** **** 0
265 CCL4 1322 GROUP 4 **** **** 0
266 CCL4 1327 GROUP 4 **** **** 0
267 CCL4 1332 GROUP 4 **** **** 0
268 CCL4 1337 GROUP 4 **** **** 0
269 CCL4 1342 GROUP 4 **** **** 0
270 CCL4 1347 GROUP 4 **** **** 0
271 CCL4 1352 GROUP 4 **** **** 0
272 CCL4 1357 GROUP 4 **** **** 0
273 CCL4 1362 GROUP 4 **** **** 0
274 CCL4 1367 GROUP 4 **** **** 0
275 CCL4 1372 GROUP 4 **** **** 0
276 CCL4 1377 GROUP 4 **** **** 0
277 CCL4 1382 GROUP 4 **** **** 0
278 CCL4 1387 GROUP 4 **** **** 0
279 CCL4 1392 GROUP 4 **** **** 0
280 CCL4 1397 GROUP 4 **** **** 0
281 CCL4 1402 GROUP 4 **** **** 0
282 CCL4 1407 GROUP 4 **** **** 0
283 CCL4 1412 GROUP 4 **** **** 0
284 CCL4 1417 GROUP 4 **** **** 0
285 CCL4 1422 GROUP 4 **** **** 0
286 CCL4 1427 GROUP 4 **** **** 0
287 CCL4 1432 GROUP 4 **** **** 0
288 CCL4 1437 GROUP 4 **** **** 0
289 CCL4 1442 GROUP 4 **** **** 0
290 CCL4 1447 GROUP 4 **** **** 0
291 CCL4 1452 GROUP 4 **** **** 0
292 CCL4 1457 GROUP 4 **** **** 0
293 CCL4 1462 GROUP 4 **** **** 0
294 CCL4 1467 GROUP 4 **** **** 0
295 CCL4 1472 GROUP 4 **** **** 0
296 CCL4 1477 GROUP 4 **** **** 0
297 CCL4 1482 GROUP 4 **** **** 0
298 CCL4 1487 GROUP 4 **** **** 0
299 CCL4 1492 GROUP 4 **** **** 0
300 CCL4 1497 GROUP 4 **** **** 0
301 CCL4 1502 GROUP 4 **** **** 0
302 CCL4 1507 GROUP 4 **** **** 0
303 CCL4 1512 GROUP 4 **** **** 0
304 CCL4 1517 GROUP 4 **** **** 0
305 CCL4 1522 GROUP 4 **** **** 0
306 CCL4 1527 GROUP 4 **** **** 0
307 CCL4 1532 GROUP 4 **** **** 0
308 CCL4 1537 GROUP 4 **** **** 0
309 CCL4 1542 GROUP 4 **** **** 0
310 CCL4 1547 GROUP 4 **** **** 0
311 CCL4 1552 GROUP 4 **** **** 0
312 CCL4 1557 GROUP 4 **** **** 0
313 CCL4 1562 GROUP 4 **** **** 0
314 CCL4 1567 GROUP 4 **** **** 0
315 CCL4 1572 GROUP 4 **** **** 0
316 CCL4 1577 GROUP 4 **** **** 0
317 CCL4 1582 GROUP 4 **** **** 0
318 CCL4 1587 GROUP 4 **** **** 0
319 CCL4 1592 GROUP 4 **** **** 0
320 CCL4 1597 GROUP 4 **** **** 0
321 CCL4 1602 GROUP 4 **** **** 0
322 CCL4 1607 GROUP 4 **** **** 0
323 CCL4 1612 GROUP 4 **** **** 0
324 CCL4 1617 GROUP 4 **** **** 0
325 CCL4 1622 GROUP 4 **** **** 0
326 CCL4 1627 GROUP 4 **** **** 0
327 CCL4 1632 GROUP 4 **** **** 0
328 CCL4 1637 GROUP 4 **** **** 0
329 CCL4 1642 GROUP 4 **** **** 0
330 CCL4 1647 GROUP 4 **** **** 0
331 CCL4 1652 GROUP 4 **** **** 0
332 CCL4 1657 GROUP 4 **** **** 0
333 CCL4 1662 GROUP 4 **** **** 0
334 CCL4 1667 GROUP 4 **** **** 0
335 CCL4 1672 GROUP 4 **** **** 0
336 CCL4 1677 GROUP 4 **** **** 0
337 CCL4 1682 GROUP 4 **** **** 0
338 CCL4 1687 GROUP 4 **** **** 0
339 CCL4 1692 GROUP 4 **** **** 0
340 CCL4 1697 GROUP 4 **** **** 0
341 CCL4 1702 GROUP 4 **** **** 0
342 CCL4 1707 GROUP 4 **** **** 0
343 CCL4 1712 GROUP 4 **** **** 0
344 CCL4 1717 GROUP 4 **** **** 0
345 CCL4 1722 GROUP 4 **** **** 0
346 CCL4 1727 GROUP 4 **** **** 0
347 CCL4 1732 GROUP 4 **** **** 0
348 CCL4 1737 GROUP 4 **** **** 0
349 CCL4 1742 GROUP 4 **** **** 0
350 CCL4 1747 GROUP 4 **** **** 0
351 CCL4 1752 GROUP 4 **** **** 0
352 CCL4 1757 GROUP 4 **** **** 0
353 CCL4 1762 GROUP 4 **** **** 0
354 CCL4 1767 GROUP 4 **** **** 0
355 CCL4 1772 GROUP 4 **** **** 0
356 CCL4 1777 GROUP 4 **** **** 0
357 CCL4 1782 GROUP 4 **** **** 0
358 CCL4 1787 GROUP 4 **** **** 0
359 CCL4 1792 GROUP 4 **** **** 0
360 CCL4 1797 GROUP 4 **** **** 0
361 CCL4 1802 GROUP 4 **** **** 0
362 CCL4 1807 GROUP 4 **** **** 0
363 CCL4 1812 GROUP 4 **** **** 0
364 CCL4 1817 GROUP 4 **** **** 0
365 CCL4 1822 GROUP 4 **** **** 0
366 CCL4 1827 GROUP 4 **** **** 0
367 CCL4 1832 GROUP 4 **** **** 0
368 CCL4 1837 GROUP 4 **** **** 0
369 CCL4 1842 GROUP 4 **** **** 0
370 CCL4 1847 GROUP 4 **** **** 0
371 CCL4 1852 GROUP 4 **** **** 0
372 CCL4 1857 GROUP 4 **** **** 0
373 CCL4 1862 GROUP 4 **** **** 0
374 CCL4 1867 GROUP 4 **** **** 0
375 CCL4 1872 GROUP 4 **** **** 0
376 CCL4 1877 GROUP 4 **** **** 0
377 CCL4 1882 GROUP 4 **** **** 0
378 CCL4 1887 GROUP 4 **** **** 0
379 CCL4 1892 GROUP 4 **** **** 0
380 CCL4 1897 GROUP 4 **** **** 0
381 CCL4 1902 GROUP 4 **** **** 0
382 CCL4 1907 GROUP 4 **** **** 0
383 CCL4 1912 GROUP 4 **** **** 0
384 CCL4 1917 GROUP 4 **** **** 0
385 CCL4 1922 GROUP 4 **** **** 0
386 CCL4 1927 GROUP 4 **** **** 0
387 CCL4 1932 GROUP 4 **** **** 0
388 CCL4 1937 GROUP 4 **** **** 0
389 CCL4 1942 GROUP 4 **** **** 0
390 CCL4 1947 GROUP 4 **** **** 0
391 CCL4 1952 GROUP 4 **** **** 0
392 CCL4 1957 GROUP 4 **** **** 0
393 CCL4 1962 GROUP 4 **** **** 0
394 CCL4 1967 GROUP 4 **** **** 0
395 CCL4 1972 GROUP 4 **** **** 0
396 CCL4 1977 GROUP 4 **** **** 0
397 CCL4 1982 GROUP 4 **** **** 0
398 CCL4 1987 GROUP 4 **** **** 0
399 CCL4 1992 GROUP 4 **** **** 0
400 CCL4 1997 GROUP 4 **** **** 0
401 CCL4 2002 GROUP 4 **** **** 0
402 CCL4 2007 GROUP 4 **** **** 0
403 CCL4 2012 GROUP 4 **** **** 0
404 CCL4 2017 GROUP 4 **** **** 0
405 CCL4 2022 GROUP 4 **** **** 0
406 CCL4 2027 GROUP 4 **** **** 0
407 CCL4 2032 GROUP 4 **** **** 0
408 CCL4 2037 GROUP 4 **** **** 0
409 CCL4 2042 GROUP 4 **** **** 0
410 CCL4 2047 GROUP 4 **** **** 0
411 CCL4 2052 GROUP 4 **** **** 0
412 CCL4 2057 GROUP 4 **** **** 0
413 CCL4 2062 GROUP 4 **** **** 0
414 CCL4 2067 GROUP 4 **** **** 0
415 CCL4 2072 GROUP 4 **** **** 0
416 CCL4 2077 GROUP 4 **** **** 0
417 CCL4 2082 GROUP 4 **** **** 0
418 CCL4 2087 GROUP 4 **** **** 0
419 CCL4 2092 GROUP 4 **** **** 0
420 CCL4 2097 GROUP 4 **** **** 0
421 CCL4 2102 GROUP 4 **** **** 0
422 CCL4 2107 GROUP 4 **** **** 0
423 CCL4 2112 GROUP 4 **** **** 0
424 CCL4 2117 GROUP 4 **** **** 0
425 CCL4 2122 GROUP 4 **** **** 0
426 CCL4 2127 GROUP 4 **** **** 0
427 CCL4 2132 GROUP 4 **** **** 0
428 CCL4 2137 GROUP 4 **** **** 0
429 CCL4 2142 GROUP 4 **** **** 0
430 CCL4 2147 GROUP 4 **** **** 0
431 CCL4 2152 GROUP 4 **** **** 0
432 CCL4 2157 GROUP 4 **** **** 0
433 CCL4 2162 GROUP 4 **** **** 0
434 CCL4 2167 GROUP 4 **** **** 0
435 CCL4 2172 GROUP 4 **** **** 0
436 CCL4 2177 GROUP 4 **** **** 0
437 CCL4 2182 GROUP 4 **** **** 0
438 CCL4 2187 GROUP 4 **** **** 0
439 CCL4 2192 GROUP 4 **** **** 0
440 CCL4 2197 GROUP 4 **** **** 0
441 CCL4 2202 GROUP 4 **** **** 0
442 CCL4 2207 GROUP 4 **** **** 0
443 CCL4 2212 GROUP 4 **** **** 0
444 CCL4 2217 GROUP 4 **** **** 0
445 CCL4 2222 GROUP 4 **** **** 0
446 CCL4 2227 GROUP 4 **** **** 0
447 CCL4 2232 GROUP 4 **** **** 0
448 CCL4 2237 GROUP 4 **** **** 0
449 CCL4 2242 GROUP 4 **** **** 0
450 CCL4 2247 GROUP 4 **** **** 0
451 CCL4 2252 GROUP 4 **** **** 0
452 CCL4 2257 GROUP 4 **** **** 0
453 CCL4 2262 GROUP 4 **** **** 0
454 CCL4 2267 GROUP 4 **** **** 0
455 CCL4 2272 GROUP 4 **** **** 0
456 CCL4 2277 GROUP 4 **** **** 0
457 CCL4 2282 GROUP 4 **** **** 0
458 CCL4 2287 GROUP 4 **** **** 0
459 CCL4 2292 GROUP 4 **** **** 0
460 CCL4 2297 GROUP 4 **** **** 0
461 CCL4 2302 GROUP 4 **** **** 0
462 CCL4 2307 GROUP 4 **** **** 0
463 CCL4 2312 GROUP 4 **** **** 0
464 CCL4 2317 GROUP 4 **** **** 0
465 CCL4 2322 GROUP 4 **** **** 0
466 CCL4 2327 GROUP 4 **** **** 0
467 CCL4 2332 GROUP 4 **** **** 0
468 CCL4 2337 GROUP 4 **** **** 0
469 CCL4 2342 GROUP 4 **** **** 0
470 CCL4 2347 GROUP 4 **** **** 0
471 CCL4 2352 GROUP 4 **** **** 0
472 CCL4 2357 GROUP 4 **** **** 0
473 CCL4 2362 GROUP 4 **** **** 0
474 CCL4 2367 GROUP 4 **** **** 0
475 CCL4 2372 GROUP 4 **** **** 0
476 CCL4 2377 GROUP 4 **** **** 0
477 CCL4 2382 GROUP 4 **** **** 0
478 CCL4 2387 GROUP 4 **** **** 0
479 CCL4 2392 GROUP 4 **** **** 0
480 CCL4 2397 GROUP 4 **** **** 0
481 CCL4 2402 GROUP 4 **** **** 0
482 CCL4 2407 GROUP 4 **** **** 0
483 CCL4 2412 GROUP 4 **** **** 0
484 CCL4 2417 GROUP 4 **** **** 0
485 CCL4 2422 GROUP 4 **** **** 0
486 CCL4 2427 GROUP 4 **** **** 0
487 CCL4 2432 GROUP 4 **** **** 0
488 CCL4 2437 GROUP 4 **** **** 0
489 CCL4 2442 GROUP 4 **** **** 0
490 CCL4 2447 GROUP 4 **** **** 0
491 CCL4 2452 GROUP 4 **** **** 0
492 CCL4 2457 GROUP 4 **** **** 0
493 CCL4 2462 GROUP 4 **** **** 0
494 CCL4 2467 GROUP 4 **** **** 0

# MOE 2020.09 (io_trps.svl 2020.11)
