@<TRIPOS>MOLECULE
parm_system.corrected.pdb
 70 74 0 0 0
SMALL
GASTEIGER

@<TRIPOS>ATOM
      1 Zn          0.0000    0.0000    0.0000 Zn      1  Com1        0.0000
      2 Zn          1.9050    1.1000    3.1100 Zn      1  Com1        0.0000
      3 Zn          1.9050    3.2990    0.0000 Zn      1  Com1        0.0000
      4 Zn          3.8090    4.3990    3.1100 Zn      1  Com1        0.0000
      5 Zn          3.8090    0.0000    0.0000 Zn      1  Com1        0.0000
      6 Zn          5.7140    1.1000    3.1100 Zn      1  Com1        0.0000
      7 Zn          5.7140    3.2990    0.0000 Zn      1  Com1        0.0000
      8 Zn          7.6190    4.3990    3.1100 Zn      1  Com1        0.0000
      9  S          1.9050    1.1000    0.7780 S.3     1  Com1        0.0000
     10  S          3.8090    2.1990    3.8880 S.3     1  Com1        0.0000
     11  S          3.8090    4.3990    0.7780 S.3     1  Com1        0.0000
     12  S          5.7140    5.4980    3.8880 S.3     1  Com1        0.0000
     13  S          5.7140    1.1000    0.7780 S.3     1  Com1        0.0000
     14  S          7.6190    2.1990    3.8880 S.3     1  Com1        0.0000
     15  S          7.6190    4.3990    0.7780 S.3     1  Com1        0.0000
     16  S          9.5240    5.4980    3.8880 S.3     1  Com1        0.0000
     17  C         -3.8280    3.4420   19.0530 C.3     1  Com1        0.0000
     18  C         -3.8980    4.7860   18.3280 C.3     1  Com1        0.0000
     19  C         -2.8800    4.8960   17.1830 C.3     1  Com1        0.0000
     20  C         -3.2130    3.9640   16.0050 C.3     1  Com1        0.0000
     21  C         -2.3580    4.2550   14.7620 C.3     1  Com1        0.0000
     22  C         -0.8730    3.9090   14.9750 C.3     1  Com1        0.0000
     23  C         -0.0680    3.9430   13.6670 C.3     1  Com1        0.0000
     24  C          0.1360    5.3710   13.1370 C.3     1  Com1        0.0000
     25  C          0.9970    5.3690   11.9000 C.2     1  Com1        0.0000
     26  C          0.5600    5.0820   10.6590 C.2     1  Com1        0.0000
     27  C         -0.8720    4.7660   10.2920 C.3     1  Com1        0.0000
     28  C         -0.9480    3.5510    9.3590 C.3     1  Com1        0.0000
     29  C         -0.6220    2.2380   10.0920 C.3     1  Com1        0.0000
     30  C         -0.5410    1.0370    9.1270 C.3     1  Com1        0.0000
     31  C          0.9000    0.6080    8.8040 C.3     1  Com1        0.0000
     32  C          1.6770    1.6700    8.0130 C.3     1  Com1        0.0000
     33  C          3.0560    1.1470    7.5990 C.3     1  Com1        0.0000
     34  C          3.8090    2.1990    6.8490 C.3     1  Com1        0.0000
     35  O          3.8090    2.1990    5.5880 O.3     1  Com1        0.0000
     36  O          4.4760    3.2030    7.5450 O.3     1  Com1        0.0000
     37  H         -4.1630    2.6190   18.3880 H       1  Com1        0.0000
     38  H         -4.4960    3.4650   19.9390 H       1  Com1        0.0000
     39  H         -2.7910    3.2390   19.3980 H       1  Com1        0.0000
     40  H         -3.6860    5.5910   19.0650 H       1  Com1        0.0000
     41  H         -4.9280    4.9470   17.9410 H       1  Com1        0.0000
     42  H         -2.8810    5.9490   16.8240 H       1  Com1        0.0000
     43  H         -1.8640    4.6720   17.5730 H       1  Com1        0.0000
     44  H         -3.0760    2.9030   16.3050 H       1  Com1        0.0000
     45  H         -4.2810    4.1000   15.7250 H       1  Com1        0.0000
     46  H         -2.7560    3.6450   13.9210 H       1  Com1        0.0000
     47  H         -2.4670    5.3250   14.4850 H       1  Com1        0.0000
     48  H         -0.4160    4.6100   15.7070 H       1  Com1        0.0000
     49  H         -0.7970    2.8820   15.3960 H       1  Com1        0.0000
     50  H         -0.5690    3.3090   12.9060 H       1  Com1        0.0000
     51  H          0.9300    3.4930   13.8640 H       1  Com1        0.0000
     52  H          0.6550    5.9680   13.9180 H       1  Com1        0.0000
     53  H         -0.8300    5.8760   12.9290 H       1  Com1        0.0000
     54  H          2.0410    5.6400   12.0200 H       1  Com1        0.0000
     55  H          1.2790    5.1510    9.8460 H       1  Com1        0.0000
     56  H         -1.5160    4.5840   11.1760 H       1  Com1        0.0000
     57  H         -1.2880    5.6470    9.7600 H       1  Com1        0.0000
     58  H         -0.2660    3.7030    8.4950 H       1  Com1        0.0000
     59  H         -1.9810    3.4830    8.9520 H       1  Com1        0.0000
     60  H          0.3250    2.3370   10.6660 H       1  Com1        0.0000
     61  H         -1.4300    2.0470   10.8320 H       1  Com1        0.0000
     62  H         -1.0960    1.2380    8.1840 H       1  Com1        0.0000
     63  H         -1.0440    0.1700    9.6090 H       1  Com1        0.0000
     64  H          0.8530   -0.3270    8.2040 H       1  Com1        0.0000
     65  H          1.4390    0.3740    9.7490 H       1  Com1        0.0000
     66  H          1.1010    1.9490    7.1030 H       1  Com1        0.0000
     67  H          1.8140    2.5740    8.6450 H       1  Com1        0.0000
     68  H          3.6380    0.8630    8.5030 H       1  Com1        0.0000
     69  H          2.9420    0.2430    6.9610 H       1  Com1        0.0000
     70  H          4.9700    3.9370    7.0520 H       1  Com1        0.0000
@<TRIPOS>BOND
     1     1     9    1F
     2     3    11    1F
     3     3     9    1F
     4     5    13    1F
     5     5     9    1F
     6     7    15    1F
     7     7    13    1F
     8     7    11    1F
     9    15     8    1F
    10    13     6    1F
    11    11     4    1F
    12     9     2    1F
    13     2    10    1F
    14     8    12    1F
    15     8    14    1F
    16     8    16    1F
    17     6    10    1F
    18     6    14    1F
    19     4    10    1F
    20     4    12    1F
    21    10    35    1
    22    35    34    1
    23    34    36    1
    24    34    33    1
    25    69    33    1
    26    70    36    1
    27    66    32    1
    28    33    32    1
    29    33    68    1
    30    32    67    1
    31    32    31    1
    32    62    30    1
    33    64    31    1
    34    58    28    1
    35    31    30    1
    36    31    65    1
    37    59    28    1
    38    30    63    1
    39    30    29    1
    40    28    29    1
    41    28    27    1
    42    57    27    1
    43    55    26    1
    44    29    60    1
    45    29    61    1
    46    27    26    1
    47    27    56    1
    48    26    25    2
    49    25    54    1
    50    25    24    1
    51    50    23    1
    52    53    24    1
    53    24    23    1
    54    24    52    1
    55    23    51    1
    56    23    22    1
    57    46    21    1
    58    47    21    1
    59    21    22    1
    60    21    20    1
    61    22    49    1
    62    22    48    1
    63    45    20    1
    64    20    44    1
    65    20    19    1
    66    42    19    1
    67    19    43    1
    68    19    18    1
    69    41    18    1
    70    18    17    1
    71    18    40    1
    72    37    17    1
    73    17    39    1
    74    17    38    1
