@<TRIPOS>MOLECULE
*****
 54 53 0 0 0
SMALL
GASTEIGER

@<TRIPOS>ATOM
      1 O           0.4899   -5.1390    7.9332 O.3     1  UNL11      -0.4806
      2 O          -0.6028   -5.1667    6.0207 O.2     1  UNL11      -0.2510
      3 C           4.3739   -3.4916    1.7971 C.3     1  UNL11      -0.0530
      4 C           4.3698   -3.6049    0.2581 C.3     1  UNL11      -0.0528
      5 C           3.0426   -4.0021    2.3885 C.3     1  UNL11      -0.0530
      6 C           5.7087   -3.1307   -0.3518 C.3     1  UNL11      -0.0496
      7 C           3.0392   -3.9247    3.9296 C.3     1  UNL11      -0.0526
      8 C           8.3110   -1.8875   -5.8346 C.3     1  UNL11      -0.0528
      9 C           8.6874   -2.8602   -6.9756 C.3     1  UNL11      -0.0531
     10 C           6.9196   -2.2257   -5.2597 C.3     1  UNL11      -0.0496
     11 C           5.7720   -3.3625   -1.8780 C.3     1  UNL11      -0.0348
     12 C           1.7113   -4.4602    4.5070 C.3     1  UNL11      -0.0430
     13 C          10.0045   -2.4768   -7.6883 C.3     1  UNL11      -0.0533
     14 C           6.5346   -1.2794   -4.1044 C.3     1  UNL11      -0.0348
     15 C           4.8180   -2.4619   -2.6450 C.2     1  UNL11      -0.0879
     16 C          11.2482   -2.6378   -6.7856 C.3     1  UNL11      -0.0559
     17 C           5.1405   -1.5901   -3.5967 C.2     1  UNL11      -0.0879
     18 C           1.7002   -4.4015    6.0505 C.3     1  UNL11       0.0448
     19 C          12.5437   -2.3585   -7.5697 C.3     1  UNL11      -0.0653
     20 C           0.4163   -4.9521    6.6445 C.2     1  UNL11       0.3047
     21 H           4.5301   -2.4496    2.0879 H       1  UNL11       0.0265
     22 H           5.2019   -4.0776    2.2043 H       1  UNL11       0.0265
     23 H           4.1918   -4.6455   -0.0253 H       1  UNL11       0.0265
     24 H           3.5467   -3.0085   -0.1416 H       1  UNL11       0.0265
     25 H           2.8818   -5.0378    2.0779 H       1  UNL11       0.0265
     26 H           2.2158   -3.4072    1.9916 H       1  UNL11       0.0265
     27 H           6.5274   -3.6834    0.1159 H       1  UNL11       0.0268
     28 H           5.8662   -2.0715   -0.1327 H       1  UNL11       0.0268
     29 H           3.8723   -4.5111    4.3259 H       1  UNL11       0.0265
     30 H           3.1843   -2.8879    4.2442 H       1  UNL11       0.0265
     31 H           8.3075   -0.8622   -6.2133 H       1  UNL11       0.0265
     32 H           9.0533   -1.9447   -5.0354 H       1  UNL11       0.0265
     33 H           7.8856   -2.8612   -7.7184 H       1  UNL11       0.0265
     34 H           8.7628   -3.8783   -6.5850 H       1  UNL11       0.0265
     35 H           6.1704   -2.1510   -6.0522 H       1  UNL11       0.0268
     36 H           6.9143   -3.2576   -4.8993 H       1  UNL11       0.0268
     37 H           5.5318   -4.4064   -2.0931 H       1  UNL11       0.0307
     38 H           6.8020   -3.2171   -2.2055 H       1  UNL11       0.0307
     39 H           0.8794   -3.8698    4.1142 H       1  UNL11       0.0270
     40 H           1.5642   -5.4943    4.1844 H       1  UNL11       0.0270
     41 H           9.9400   -1.4480   -8.0519 H       1  UNL11       0.0265
     42 H          10.1190   -3.1196   -8.5649 H       1  UNL11       0.0265
     43 H           7.2701   -1.3599   -3.3016 H       1  UNL11       0.0307
     44 H           6.5665   -0.2432   -4.4499 H       1  UNL11       0.0307
     45 H           3.7669   -2.5829   -2.3958 H       1  UNL11       0.0569
     46 H          11.1926   -1.9483   -5.9406 H       1  UNL11       0.0263
     47 H          11.2844   -3.6532   -6.3835 H       1  UNL11       0.0263
     48 H           4.3449   -1.0226   -4.0740 H       1  UNL11       0.0569
     49 H           1.8272   -3.3686    6.3832 H       1  UNL11       0.0377
     50 H           2.5462   -4.9727    6.4420 H       1  UNL11       0.0377
     51 H          12.5419   -1.3410   -7.9675 H       1  UNL11       0.0230
     52 H          12.6491   -3.0574   -8.4028 H       1  UNL11       0.0230
     53 H          13.4122   -2.4702   -6.9169 H       1  UNL11       0.0230
     54 H          -0.3821   -5.4743    8.2095 H       1  UNL11       0.2951
@<TRIPOS>BOND
     1     1    20    1
     2     1    54    1
     3     2    20    2
     4     3     4    1
     5     3     5    1
     6     3    21    1
     7     3    22    1
     8     4     6    1
     9     4    23    1
    10     4    24    1
    11     5     7    1
    12     5    25    1
    13     5    26    1
    14     6    11    1
    15     6    27    1
    16     6    28    1
    17     7    12    1
    18     7    29    1
    19     7    30    1
    20     8     9    1
    21     8    10    1
    22     8    31    1
    23     8    32    1
    24     9    13    1
    25     9    33    1
    26     9    34    1
    27    10    14    1
    28    10    35    1
    29    10    36    1
    30    11    15    1
    31    11    37    1
    32    11    38    1
    33    12    18    1
    34    12    39    1
    35    12    40    1
    36    13    16    1
    37    13    41    1
    38    13    42    1
    39    14    17    1
    40    14    43    1
    41    14    44    1
    42    15    17    2
    43    15    45    1
    44    16    19    1
    45    16    46    1
    46    16    47    1
    47    17    48    1
    48    18    20    1
    49    18    49    1
    50    18    50    1
    51    19    51    1
    52    19    52    1
    53    19    53    1
