@<TRIPOS>MOLECULE
*****
 53 52 0 0 0
SMALL
GASTEIGER

@<TRIPOS>ATOM
      1 O           0.9777   -4.2401    8.0591 O.co2   1  UNL11      -0.2464
      2 O          -0.3409   -3.9332    6.3134 O.co2   1  UNL11      -0.2464
      3 C           4.3411   -3.8229    1.4466 C.3     1  UNL11      -0.0530
      4 C           4.1452   -4.0057   -0.0731 C.3     1  UNL11      -0.0528
      5 C           3.0097   -4.0077    2.2048 C.3     1  UNL11      -0.0530
      6 C           5.4793   -3.8409   -0.8352 C.3     1  UNL11      -0.0496
      7 C           3.2014   -3.8357    3.7263 C.3     1  UNL11      -0.0526
      8 C           8.2658   -1.7967   -5.6361 C.3     1  UNL11      -0.0528
      9 C           8.7474   -2.3622   -6.9916 C.3     1  UNL11      -0.0531
     10 C           6.7983   -2.1883   -5.3630 C.3     1  UNL11      -0.0496
     11 C           5.3232   -4.0966   -2.3496 C.3     1  UNL11      -0.0348
     12 C           1.8698   -4.0345    4.4816 C.3     1  UNL11      -0.0428
     13 C          10.1785   -1.9085   -7.3608 C.3     1  UNL11      -0.0533
     14 C           6.3103   -1.6377   -4.0080 C.3     1  UNL11      -0.0348
     15 C           4.4473   -3.0553   -3.0223 C.2     1  UNL11      -0.0879
     16 C          11.2601   -2.5195   -6.4413 C.3     1  UNL11      -0.0559
     17 C           4.8674   -2.0263   -3.7528 C.2     1  UNL11      -0.0879
     18 C           2.0561   -3.8659    6.0061 C.3     1  UNL11       0.0492
     19 C          12.6743   -2.1343   -6.9130 C.3     1  UNL11      -0.0653
     20 C           0.7700   -4.0996    6.7765 C.2     1  UNL11       0.3560
     21 H           4.7404   -2.8249    1.6456 H       1  UNL11       0.0265
     22 H           5.0715   -4.5503    1.8104 H       1  UNL11       0.0265
     23 H           3.7356   -5.0000   -0.2691 H       1  UNL11       0.0265
     24 H           3.4196   -3.2723   -0.4329 H       1  UNL11       0.0265
     25 H           2.6093   -5.0038    1.9987 H       1  UNL11       0.0265
     26 H           2.2803   -3.2777    1.8440 H       1  UNL11       0.0265
     27 H           6.2102   -4.5482   -0.4355 H       1  UNL11       0.0268
     28 H           5.8782   -2.8361   -0.6738 H       1  UNL11       0.0268
     29 H           3.9363   -4.5611    4.0851 H       1  UNL11       0.0265
     30 H           3.5937   -2.8367    3.9339 H       1  UNL11       0.0265
     31 H           8.3568   -0.7075   -5.6411 H       1  UNL11       0.0265
     32 H           8.8933   -2.1790   -4.8281 H       1  UNL11       0.0265
     33 H           8.0672   -2.0231   -7.7771 H       1  UNL11       0.0265
     34 H           8.7001   -3.4541   -6.9766 H       1  UNL11       0.0265
     35 H           6.1607   -1.8012   -6.1619 H       1  UNL11       0.0268
     36 H           6.7050   -3.2774   -5.3656 H       1  UNL11       0.0268
     37 H           4.8972   -5.0895   -2.5124 H       1  UNL11       0.0307
     38 H           6.3157   -4.1181   -2.8032 H       1  UNL11       0.0307
     39 H           1.1358   -3.3092    4.1210 H       1  UNL11       0.0270
     40 H           1.4773   -5.0334    4.2739 H       1  UNL11       0.0270
     41 H          10.2383   -0.8175   -7.3312 H       1  UNL11       0.0265
     42 H          10.3791   -2.2125   -8.3913 H       1  UNL11       0.0265
     43 H           6.9596   -2.0038   -3.2101 H       1  UNL11       0.0307
     44 H           6.3950   -0.5483   -4.0006 H       1  UNL11       0.0307
     45 H           3.3770   -3.2140   -2.9125 H       1  UNL11       0.0569
     46 H          11.1247   -2.1708   -5.4154 H       1  UNL11       0.0263
     47 H          11.1684   -3.6085   -6.4361 H       1  UNL11       0.0263
     48 H           4.1284   -1.3650   -4.1994 H       1  UNL11       0.0569
     49 H           2.4221   -2.8604    6.2274 H       1  UNL11       0.0379
     50 H           2.8142   -4.5707    6.3580 H       1  UNL11       0.0379
     51 H          12.8006   -1.0492   -6.9068 H       1  UNL11       0.0230
     52 H          12.8566   -2.5002   -7.9262 H       1  UNL11       0.0230
     53 H          13.4253   -2.5709   -6.2509 H       1  UNL11       0.0230
@<TRIPOS>BOND
     1     1    20   ar
     2     2    20   ar
     3     3     4    1
     4     3     5    1
     5     3    21    1
     6     3    22    1
     7     4     6    1
     8     4    23    1
     9     4    24    1
    10     5     7    1
    11     5    25    1
    12     5    26    1
    13     6    11    1
    14     6    27    1
    15     6    28    1
    16     7    12    1
    17     7    29    1
    18     7    30    1
    19     8     9    1
    20     8    10    1
    21     8    31    1
    22     8    32    1
    23     9    13    1
    24     9    33    1
    25     9    34    1
    26    10    14    1
    27    10    35    1
    28    10    36    1
    29    11    15    1
    30    11    37    1
    31    11    38    1
    32    12    18    1
    33    12    39    1
    34    12    40    1
    35    13    16    1
    36    13    41    1
    37    13    42    1
    38    14    17    1
    39    14    43    1
    40    14    44    1
    41    15    17    2
    42    15    45    1
    43    16    19    1
    44    16    46    1
    45    16    47    1
    46    17    48    1
    47    18    20    1
    48    18    49    1
    49    18    50    1
    50    19    51    1
    51    19    52    1
    52    19    53    1
